<routes>

<vType id="Car" accel="2.6" decel="4.5" length="5" maxSpeed="16"/>
<vType id="Bike" accel="2.1" decel="4.0" length="2" maxSpeed="14"/>
<vType id="Bus" accel="1.0" decel="2.0" length="12" maxSpeed="12"/>
<vType id="Truck" accel="1.0" decel="2.0" length="10" maxSpeed="11"/>

<route id="heavy_low_route_0" edges="E4 E5 -E11 -E10 -E9"/>
<route id="heavy_low_route_1" edges="-E7 E1 E2 -E10 -E9"/>
<route id="heavy_low_route_2" edges="E4 E5 -E11 -E10 -E9"/>
<route id="heavy_low_route_3" edges="-E7 E1 E3 E9 E10"/>
<route id="heavy_low_route_4" edges="E4 E0 E3 E9 E10"/>
<route id="heavy_low_route_5" edges="-E7 E1 E3 E9 E10"/>
<route id="heavy_low_route_6" edges="E6 E1 E3 E9 E10"/>
<route id="heavy_low_route_7" edges="E7 E8 -E3 E2 -E10 -E9"/>
<route id="heavy_low_route_8" edges="-E7 E1 E3 E9 E10"/>
<route id="heavy_low_route_9" edges="E7 E8 -E3 E2 -E10 -E9"/>
<route id="heavy_low_route_10" edges="E4 E0 E3 E9 E10"/>
<route id="heavy_low_route_11" edges="E7 E8 -E3 E2 -E10 -E9"/>
<route id="heavy_low_route_12" edges="E4 E5 -E11 -E10 -E9"/>
<route id="heavy_low_route_13" edges="E4 E0 E3 E9 E10"/>
<route id="heavy_low_route_14" edges="E4 E5 -E11 -E10 -E9"/>
<route id="heavy_low_route_15" edges="E4 E0 E3 E9 E10"/>
<route id="heavy_low_route_16" edges="E7 E8 -E3 E2 -E10 -E9"/>
<route id="heavy_low_route_17" edges="E6 E1 E3 E9 E10"/>
<route id="heavy_low_route_18" edges="E6 E1 E2 -E10 -E9"/>
<route id="heavy_low_route_19" edges="E6 E1 E3 E9 E10"/>
<route id="heavy_low_route_20" edges="-E7 E1 E3 E9 E10"/>
<route id="heavy_low_route_21" edges="E6 E1 E2 -E10 -E9"/>
<route id="heavy_low_route_22" edges="E6 E1 E2 -E10 -E9"/>
<route id="heavy_low_route_23" edges="E4 E0 E3 E9 E10"/>
<route id="heavy_low_route_24" edges="E6 E1 E3 E9 E10"/>
<route id="heavy_low_route_25" edges="E6 E1 E3 E9 E10"/>
<route id="heavy_low_route_26" edges="E6 E1 E3 E9 E10"/>
<route id="heavy_low_route_27" edges="E4 E0 E3 E9 E10"/>

<vehicle id="heavy_low_1855" type="Car" depart="5.56" route="heavy_low_route_21" departLane="best" departSpeed="max"/>
<vehicle id="heavy_low_2196" type="Car" depart="6.03" route="heavy_low_route_24" departLane="best" departSpeed="max"/>
<vehicle id="heavy_low_713" type="Car" depart="8.26" route="heavy_low_route_7" departLane="best" departSpeed="max"/>
<vehicle id="heavy_low_1721" type="Car" depart="10.34" route="heavy_low_route_20" departLane="best" departSpeed="max"/>
<vehicle id="heavy_low_744" type="Bus" depart="10.46" route="heavy_low_route_8" departLane="best" departSpeed="max"/>
<vehicle id="heavy_low_20" type="Bus" depart="12.28" route="heavy_low_route_0" departLane="best" departSpeed="max"/>
<vehicle id="heavy_low_1735" type="Car" depart="16.57" route="heavy_low_route_20" departLane="best" departSpeed="max"/>
<vehicle id="heavy_low_1595" type="Bus" depart="17.07" route="heavy_low_route_18" departLane="best" departSpeed="max"/>
<vehicle id="heavy_low_212" type="Bike" depart="17.22" route="heavy_low_route_2" departLane="best" departSpeed="max"/>
<vehicle id="heavy_low_2349" type="Bus" depart="19.02" route="heavy_low_route_26" departLane="best" departSpeed="max"/>
<vehicle id="heavy_low_985" type="Car" depart="20.27" route="heavy_low_route_11" departLane="best" departSpeed="max"/>
<vehicle id="heavy_low_2316" type="Bus" depart="24.38" route="heavy_low_route_26" departLane="best" departSpeed="max"/>
<vehicle id="heavy_low_901" type="Car" depart="24.49" route="heavy_low_route_10" departLane="best" departSpeed="max"/>
<vehicle id="heavy_low_1886" type="Car" depart="24.71" route="heavy_low_route_21" departLane="best" departSpeed="max"/>
<vehicle id="heavy_low_2116" type="Car" depart="26.32" route="heavy_low_route_23" departLane="best" departSpeed="max"/>
<vehicle id="heavy_low_2178" type="Car" depart="27.91" route="heavy_low_route_24" departLane="best" departSpeed="max"/>
<vehicle id="heavy_low_805" type="Car" depart="31.65" route="heavy_low_route_8" departLane="best" departSpeed="max"/>
<vehicle id="heavy_low_635" type="Car" depart="32.65" route="heavy_low_route_7" departLane="best" departSpeed="max"/>
<vehicle id="heavy_low_76" type="Truck" depart="36.03" route="heavy_low_route_0" departLane="best" departSpeed="max"/>
<vehicle id="heavy_low_253" type="Car" depart="37.38" route="heavy_low_route_2" departLane="best" departSpeed="max"/>
<vehicle id="heavy_low_2085" type="Bike" depart="37.80" route="heavy_low_route_23" departLane="best" departSpeed="max"/>
<vehicle id="heavy_low_863" type="Car" depart="43.87" route="heavy_low_route_9" departLane="best" departSpeed="max"/>
<vehicle id="heavy_low_291" type="Bike" depart="43.88" route="heavy_low_route_3" departLane="best" departSpeed="max"/>
<vehicle id="heavy_low_41" type="Bike" depart="46.29" route="heavy_low_route_0" departLane="best" departSpeed="max"/>
<vehicle id="heavy_low_1066" type="Bike" depart="46.68" route="heavy_low_route_12" departLane="best" departSpeed="max"/>
<vehicle id="heavy_low_1154" type="Truck" depart="48.30" route="heavy_low_route_13" departLane="best" departSpeed="max"/>
<vehicle id="heavy_low_182" type="Bike" depart="49.38" route="heavy_low_route_1" departLane="best" departSpeed="max"/>
<vehicle id="heavy_low_412" type="Car" depart="51.05" route="heavy_low_route_4" departLane="best" departSpeed="max"/>
<vehicle id="heavy_low_675" type="Car" depart="51.39" route="heavy_low_route_7" departLane="best" departSpeed="max"/>
<vehicle id="heavy_low_94" type="Truck" depart="51.46" route="heavy_low_route_0" departLane="best" departSpeed="max"/>
<vehicle id="heavy_low_2264" type="Bike" depart="51.99" route="heavy_low_route_25" departLane="best" departSpeed="max"/>
<vehicle id="heavy_low_2153" type="Car" depart="53.89" route="heavy_low_route_24" departLane="best" departSpeed="max"/>
<vehicle id="heavy_low_940" type="Bus" depart="54.59" route="heavy_low_route_10" departLane="best" departSpeed="max"/>
<vehicle id="heavy_low_845" type="Truck" depart="56.38" route="heavy_low_route_9" departLane="best" departSpeed="max"/>
<vehicle id="heavy_low_2459" type="Car" depart="57.38" route="heavy_low_route_27" departLane="best" departSpeed="max"/>
<vehicle id="heavy_low_1011" type="Car" depart="59.04" route="heavy_low_route_11" departLane="best" departSpeed="max"/>
<vehicle id="heavy_low_602" type="Car" depart="60.00" route="heavy_low_route_6" departLane="best" departSpeed="max"/>
<vehicle id="heavy_low_1719" type="Bus" depart="61.85" route="heavy_low_route_20" departLane="best" departSpeed="max"/>
<vehicle id="heavy_low_177" type="Car" depart="61.91" route="heavy_low_route_1" departLane="best" departSpeed="max"/>
<vehicle id="heavy_low_1639" type="Car" depart="63.00" route="heavy_low_route_19" departLane="best" departSpeed="max"/>
<vehicle id="heavy_low_1847" type="Car" depart="66.48" route="heavy_low_route_21" departLane="best" departSpeed="max"/>
<vehicle id="heavy_low_2168" type="Car" depart="68.30" route="heavy_low_route_24" departLane="best" departSpeed="max"/>
<vehicle id="heavy_low_1386" type="Truck" depart="70.76" route="heavy_low_route_15" departLane="best" departSpeed="max"/>
<vehicle id="heavy_low_738" type="Car" depart="72.91" route="heavy_low_route_8" departLane="best" departSpeed="max"/>
<vehicle id="heavy_low_457" type="Car" depart="76.77" route="heavy_low_route_4" departLane="best" departSpeed="max"/>
<vehicle id="heavy_low_2424" type="Bus" depart="78.81" route="heavy_low_route_27" departLane="best" departSpeed="max"/>
<vehicle id="heavy_low_588" type="Car" depart="79.48" route="heavy_low_route_6" departLane="best" departSpeed="max"/>
<vehicle id="heavy_low_2049" type="Car" depart="79.96" route="heavy_low_route_23" departLane="best" departSpeed="max"/>
<vehicle id="heavy_low_1334" type="Truck" depart="82.14" route="heavy_low_route_14" departLane="best" departSpeed="max"/>
<vehicle id="heavy_low_21" type="Car" depart="82.63" route="heavy_low_route_0" departLane="best" departSpeed="max"/>
<vehicle id="heavy_low_1869" type="Truck" depart="83.34" route="heavy_low_route_21" departLane="best" departSpeed="max"/>
<vehicle id="heavy_low_1899" type="Truck" depart="86.87" route="heavy_low_route_21" departLane="best" departSpeed="max"/>
<vehicle id="heavy_low_643" type="Bike" depart="100.57" route="heavy_low_route_7" departLane="best" departSpeed="max"/>
<vehicle id="heavy_low_2076" type="Bike" depart="104.83" route="heavy_low_route_23" departLane="best" departSpeed="max"/>
<vehicle id="heavy_low_1766" type="Car" depart="106.15" route="heavy_low_route_20" departLane="best" departSpeed="max"/>
<vehicle id="heavy_low_903" type="Bike" depart="109.00" route="heavy_low_route_10" departLane="best" departSpeed="max"/>
<vehicle id="heavy_low_292" type="Bike" depart="111.44" route="heavy_low_route_3" departLane="best" departSpeed="max"/>
<vehicle id="heavy_low_1525" type="Bike" depart="112.34" route="heavy_low_route_17" departLane="best" departSpeed="max"/>
<vehicle id="heavy_low_1885" type="Car" depart="115.21" route="heavy_low_route_21" departLane="best" departSpeed="max"/>
<vehicle id="heavy_low_1256" type="Bus" depart="118.95" route="heavy_low_route_13" departLane="best" departSpeed="max"/>
<vehicle id="heavy_low_1873" type="Car" depart="119.59" route="heavy_low_route_21" departLane="best" departSpeed="max"/>
<vehicle id="heavy_low_873" type="Bike" depart="121.87" route="heavy_low_route_9" departLane="best" departSpeed="max"/>
<vehicle id="heavy_low_1631" type="Bus" depart="129.69" route="heavy_low_route_18" departLane="best" departSpeed="max"/>
<vehicle id="heavy_low_1792" type="Bike" depart="132.18" route="heavy_low_route_20" departLane="best" departSpeed="max"/>
<vehicle id="heavy_low_955" type="Bus" depart="133.34" route="heavy_low_route_11" departLane="best" departSpeed="max"/>
<vehicle id="heavy_low_1904" type="Car" depart="134.57" route="heavy_low_route_22" departLane="best" departSpeed="max"/>
<vehicle id="heavy_low_416" type="Car" depart="141.20" route="heavy_low_route_4" departLane="best" departSpeed="max"/>
<vehicle id="heavy_low_115" type="Car" depart="141.34" route="heavy_low_route_0" departLane="best" departSpeed="max"/>
<vehicle id="heavy_low_2432" type="Truck" depart="147.04" route="heavy_low_route_27" departLane="best" departSpeed="max"/>
<vehicle id="heavy_low_2032" type="Bike" depart="148.02" route="heavy_low_route_23" departLane="best" departSpeed="max"/>
<vehicle id="heavy_low_387" type="Car" depart="150.46" route="heavy_low_route_3" departLane="best" departSpeed="max"/>
<vehicle id="heavy_low_2237" type="Car" depart="159.67" route="heavy_low_route_24" departLane="best" departSpeed="max"/>
<vehicle id="heavy_low_1775" type="Bus" depart="163.92" route="heavy_low_route_20" departLane="best" departSpeed="max"/>
<vehicle id="heavy_low_2035" type="Bus" depart="165.09" route="heavy_low_route_23" departLane="best" departSpeed="max"/>
<vehicle id="heavy_low_1409" type="Bike" depart="166.38" route="heavy_low_route_15" departLane="best" departSpeed="max"/>
<vehicle id="heavy_low_1589" type="Car" depart="167.05" route="heavy_low_route_18" departLane="best" departSpeed="max"/>
<vehicle id="heavy_low_364" type="Car" depart="171.78" route="heavy_low_route_3" departLane="best" departSpeed="max"/>
<vehicle id="heavy_low_565" type="Bike" depart="173.63" route="heavy_low_route_6" departLane="best" departSpeed="max"/>
<vehicle id="heavy_low_768" type="Bus" depart="175.04" route="heavy_low_route_8" departLane="best" departSpeed="max"/>
<vehicle id="heavy_low_342" type="Car" depart="175.26" route="heavy_low_route_3" departLane="best" departSpeed="max"/>
<vehicle id="heavy_low_1724" type="Truck" depart="176.91" route="heavy_low_route_20" departLane="best" departSpeed="max"/>
<vehicle id="heavy_low_133" type="Car" depart="178.94" route="heavy_low_route_1" departLane="best" departSpeed="max"/>
<vehicle id="heavy_low_888" type="Bus" depart="179.41" route="heavy_low_route_10" departLane="best" departSpeed="max"/>
<vehicle id="heavy_low_756" type="Car" depart="180.08" route="heavy_low_route_8" departLane="best" departSpeed="max"/>
<vehicle id="heavy_low_548" type="Car" depart="181.77" route="heavy_low_route_6" departLane="best" departSpeed="max"/>
<vehicle id="heavy_low_1110" type="Car" depart="182.58" route="heavy_low_route_12" departLane="best" departSpeed="max"/>
<vehicle id="heavy_low_1234" type="Car" depart="184.45" route="heavy_low_route_13" departLane="best" departSpeed="max"/>
<vehicle id="heavy_low_23" type="Bike" depart="185.64" route="heavy_low_route_0" departLane="best" departSpeed="max"/>
<vehicle id="heavy_low_1763" type="Car" depart="186.27" route="heavy_low_route_20" departLane="best" departSpeed="max"/>
<vehicle id="heavy_low_1403" type="Car" depart="187.17" route="heavy_low_route_15" departLane="best" departSpeed="max"/>
<vehicle id="heavy_low_1438" type="Bike" depart="187.33" route="heavy_low_route_15" departLane="best" departSpeed="max"/>
<vehicle id="heavy_low_2110" type="Bike" depart="188.55" route="heavy_low_route_23" departLane="best" departSpeed="max"/>
<vehicle id="heavy_low_369" type="Bike" depart="188.62" route="heavy_low_route_3" departLane="best" departSpeed="max"/>
<vehicle id="heavy_low_1069" type="Bus" depart="189.50" route="heavy_low_route_12" departLane="best" departSpeed="max"/>
<vehicle id="heavy_low_273" type="Bus" depart="191.08" route="heavy_low_route_2" departLane="best" departSpeed="max"/>
<vehicle id="heavy_low_1813" type="Car" depart="192.37" route="heavy_low_route_20" departLane="best" departSpeed="max"/>
<vehicle id="heavy_low_1919" type="Bike" depart="193.89" route="heavy_low_route_22" departLane="best" departSpeed="max"/>
<vehicle id="heavy_low_80" type="Bike" depart="194.29" route="heavy_low_route_0" departLane="best" departSpeed="max"/>
<vehicle id="heavy_low_343" type="Car" depart="195.22" route="heavy_low_route_3" departLane="best" departSpeed="max"/>
<vehicle id="heavy_low_164" type="Car" depart="195.27" route="heavy_low_route_1" departLane="best" departSpeed="max"/>
<vehicle id="heavy_low_1188" type="Bus" depart="196.87" route="heavy_low_route_13" departLane="best" departSpeed="max"/>
<vehicle id="heavy_low_1683" type="Bus" depart="197.29" route="heavy_low_route_19" departLane="best" departSpeed="max"/>
<vehicle id="heavy_low_1441" type="Car" depart="197.85" route="heavy_low_route_15" departLane="best" departSpeed="max"/>
<vehicle id="heavy_low_906" type="Car" depart="198.50" route="heavy_low_route_10" departLane="best" departSpeed="max"/>
<vehicle id="heavy_low_56" type="Bike" depart="204.27" route="heavy_low_route_0" departLane="best" departSpeed="max"/>
<vehicle id="heavy_low_1003" type="Car" depart="205.56" route="heavy_low_route_11" departLane="best" departSpeed="max"/>
<vehicle id="heavy_low_1090" type="Car" depart="206.01" route="heavy_low_route_12" departLane="best" departSpeed="max"/>
<vehicle id="heavy_low_728" type="Bike" depart="210.63" route="heavy_low_route_8" departLane="best" departSpeed="max"/>
<vehicle id="heavy_low_235" type="Bus" depart="214.17" route="heavy_low_route_2" departLane="best" departSpeed="max"/>
<vehicle id="heavy_low_1167" type="Bike" depart="215.78" route="heavy_low_route_13" departLane="best" departSpeed="max"/>
<vehicle id="heavy_low_640" type="Bike" depart="216.24" route="heavy_low_route_7" departLane="best" departSpeed="max"/>
<vehicle id="heavy_low_1010" type="Car" depart="216.33" route="heavy_low_route_11" departLane="best" departSpeed="max"/>
<vehicle id="heavy_low_1653" type="Car" depart="216.74" route="heavy_low_route_19" departLane="best" departSpeed="max"/>
<vehicle id="heavy_low_1382" type="Bus" depart="220.55" route="heavy_low_route_15" departLane="best" departSpeed="max"/>
<vehicle id="heavy_low_278" type="Bike" depart="221.68" route="heavy_low_route_2" departLane="best" departSpeed="max"/>
<vehicle id="heavy_low_200" type="Car" depart="222.30" route="heavy_low_route_2" departLane="best" departSpeed="max"/>
<vehicle id="heavy_low_1805" type="Car" depart="223.47" route="heavy_low_route_20" departLane="best" departSpeed="max"/>
<vehicle id="heavy_low_1257" type="Bike" depart="224.44" route="heavy_low_route_13" departLane="best" departSpeed="max"/>
<vehicle id="heavy_low_87" type="Car" depart="226.46" route="heavy_low_route_0" departLane="best" departSpeed="max"/>
<vehicle id="heavy_low_683" type="Car" depart="226.59" route="heavy_low_route_7" departLane="best" departSpeed="max"/>
<vehicle id="heavy_low_1387" type="Car" depart="226.60" route="heavy_low_route_15" departLane="best" departSpeed="max"/>
<vehicle id="heavy_low_217" type="Car" depart="226.91" route="heavy_low_route_2" departLane="best" departSpeed="max"/>
<vehicle id="heavy_low_1306" type="Bus" depart="229.22" route="heavy_low_route_14" departLane="best" departSpeed="max"/>
<vehicle id="heavy_low_2370" type="Car" depart="231.14" route="heavy_low_route_26" departLane="best" departSpeed="max"/>
<vehicle id="heavy_low_464" type="Car" depart="231.40" route="heavy_low_route_4" departLane="best" departSpeed="max"/>
<vehicle id="heavy_low_1312" type="Car" depart="236.44" route="heavy_low_route_14" departLane="best" departSpeed="max"/>
<vehicle id="heavy_low_276" type="Bus" depart="236.88" route="heavy_low_route_2" departLane="best" departSpeed="max"/>
<vehicle id="heavy_low_668" type="Bus" depart="238.61" route="heavy_low_route_7" departLane="best" departSpeed="max"/>
<vehicle id="heavy_low_515" type="Car" depart="239.12" route="heavy_low_route_5" departLane="best" departSpeed="max"/>
<vehicle id="heavy_low_460" type="Bike" depart="243.66" route="heavy_low_route_4" departLane="best" departSpeed="max"/>
<vehicle id="heavy_low_710" type="Truck" depart="246.89" route="heavy_low_route_7" departLane="best" departSpeed="max"/>
<vehicle id="heavy_low_1635" type="Bus" depart="247.09" route="heavy_low_route_18" departLane="best" departSpeed="max"/>
<vehicle id="heavy_low_485" type="Bike" depart="247.66" route="heavy_low_route_5" departLane="best" departSpeed="max"/>
<vehicle id="heavy_low_1907" type="Car" depart="252.34" route="heavy_low_route_22" departLane="best" departSpeed="max"/>
<vehicle id="heavy_low_1028" type="Car" depart="256.14" route="heavy_low_route_11" departLane="best" departSpeed="max"/>
<vehicle id="heavy_low_522" type="Car" depart="256.28" route="heavy_low_route_5" departLane="best" departSpeed="max"/>
<vehicle id="heavy_low_1821" type="Car" depart="257.31" route="heavy_low_route_21" departLane="best" departSpeed="max"/>
<vehicle id="heavy_low_1994" type="Bike" depart="260.68" route="heavy_low_route_22" departLane="best" departSpeed="max"/>
<vehicle id="heavy_low_613" type="Car" depart="260.72" route="heavy_low_route_6" departLane="best" departSpeed="max"/>
<vehicle id="heavy_low_1748" type="Bike" depart="261.12" route="heavy_low_route_20" departLane="best" departSpeed="max"/>
<vehicle id="heavy_low_620" type="Bus" depart="262.74" route="heavy_low_route_6" departLane="best" departSpeed="max"/>
<vehicle id="heavy_low_1705" type="Truck" depart="265.56" route="heavy_low_route_20" departLane="best" departSpeed="max"/>
<vehicle id="heavy_low_1621" type="Truck" depart="265.62" route="heavy_low_route_18" departLane="best" departSpeed="max"/>
<vehicle id="heavy_low_1669" type="Car" depart="267.00" route="heavy_low_route_19" departLane="best" departSpeed="max"/>
<vehicle id="heavy_low_2395" type="Bike" depart="268.24" route="heavy_low_route_26" departLane="best" departSpeed="max"/>
<vehicle id="heavy_low_2301" type="Car" depart="269.12" route="heavy_low_route_25" departLane="best" departSpeed="max"/>
<vehicle id="heavy_low_869" type="Bike" depart="269.22" route="heavy_low_route_9" departLane="best" departSpeed="max"/>
<vehicle id="heavy_low_2368" type="Bike" depart="271.94" route="heavy_low_route_26" departLane="best" departSpeed="max"/>
<vehicle id="heavy_low_523" type="Bus" depart="272.20" route="heavy_low_route_5" departLane="best" departSpeed="max"/>
<vehicle id="heavy_low_918" type="Bike" depart="275.19" route="heavy_low_route_10" departLane="best" departSpeed="max"/>
<vehicle id="heavy_low_1779" type="Bike" depart="275.25" route="heavy_low_route_20" departLane="best" departSpeed="max"/>
<vehicle id="heavy_low_1840" type="Car" depart="277.81" route="heavy_low_route_21" departLane="best" departSpeed="max"/>
<vehicle id="heavy_low_1809" type="Bike" depart="278.34" route="heavy_low_route_20" departLane="best" departSpeed="max"/>
<vehicle id="heavy_low_1990" type="Car" depart="279.75" route="heavy_low_route_22" departLane="best" departSpeed="max"/>
<vehicle id="heavy_low_1652" type="Car" depart="281.68" route="heavy_low_route_19" departLane="best" departSpeed="max"/>
<vehicle id="heavy_low_1917" type="Car" depart="281.94" route="heavy_low_route_22" departLane="best" departSpeed="max"/>
<vehicle id="heavy_low_1765" type="Bike" depart="284.12" route="heavy_low_route_20" departLane="best" departSpeed="max"/>
<vehicle id="heavy_low_298" type="Car" depart="284.70" route="heavy_low_route_3" departLane="best" departSpeed="max"/>
<vehicle id="heavy_low_2007" type="Bike" depart="284.97" route="heavy_low_route_22" departLane="best" departSpeed="max"/>
<vehicle id="heavy_low_1221" type="Car" depart="295.56" route="heavy_low_route_13" departLane="best" departSpeed="max"/>
<vehicle id="heavy_low_1262" type="Bike" depart="296.08" route="heavy_low_route_14" departLane="best" departSpeed="max"/>
<vehicle id="heavy_low_1494" type="Bus" depart="298.37" route="heavy_low_route_16" departLane="best" departSpeed="max"/>
<vehicle id="heavy_low_2288" type="Bus" depart="299.77" route="heavy_low_route_25" departLane="best" departSpeed="max"/>
<vehicle id="heavy_low_1143" type="Car" depart="299.90" route="heavy_low_route_13" departLane="best" departSpeed="max"/>
<vehicle id="heavy_low_1039" type="Bike" depart="303.44" route="heavy_low_route_11" departLane="best" departSpeed="max"/>
<vehicle id="heavy_low_401" type="Car" depart="308.02" route="heavy_low_route_3" departLane="best" departSpeed="max"/>
<vehicle id="heavy_low_30" type="Car" depart="308.71" route="heavy_low_route_0" departLane="best" departSpeed="max"/>
<vehicle id="heavy_low_764" type="Bus" depart="309.06" route="heavy_low_route_8" departLane="best" departSpeed="max"/>
<vehicle id="heavy_low_542" type="Bike" depart="309.89" route="heavy_low_route_6" departLane="best" departSpeed="max"/>
<vehicle id="heavy_low_1769" type="Car" depart="310.75" route="heavy_low_route_20" departLane="best" departSpeed="max"/>
<vehicle id="heavy_low_306" type="Car" depart="314.13" route="heavy_low_route_3" departLane="best" departSpeed="max"/>
<vehicle id="heavy_low_1545" type="Car" depart="314.43" route="heavy_low_route_17" departLane="best" departSpeed="max"/>
<vehicle id="heavy_low_1322" type="Car" depart="316.44" route="heavy_low_route_14" departLane="best" departSpeed="max"/>
<vehicle id="heavy_low_128" type="Car" depart="316.85" route="heavy_low_route_1" departLane="best" departSpeed="max"/>
<vehicle id="heavy_low_667" type="Bus" depart="319.50" route="heavy_low_route_7" departLane="best" departSpeed="max"/>
<vehicle id="heavy_low_1133" type="Bus" depart="322.35" route="heavy_low_route_12" departLane="best" departSpeed="max"/>
<vehicle id="heavy_low_295" type="Bike" depart="326.67" route="heavy_low_route_3" departLane="best" departSpeed="max"/>
<vehicle id="heavy_low_2151" type="Bike" depart="328.34" route="heavy_low_route_24" departLane="best" departSpeed="max"/>
<vehicle id="heavy_low_299" type="Bike" depart="328.51" route="heavy_low_route_3" departLane="best" departSpeed="max"/>
<vehicle id="heavy_low_121" type="Car" depart="329.39" route="heavy_low_route_1" departLane="best" departSpeed="max"/>
<vehicle id="heavy_low_2074" type="Bike" depart="334.66" route="heavy_low_route_23" departLane="best" departSpeed="max"/>
<vehicle id="heavy_low_755" type="Bike" depart="335.04" route="heavy_low_route_8" departLane="best" departSpeed="max"/>
<vehicle id="heavy_low_2358" type="Car" depart="337.52" route="heavy_low_route_26" departLane="best" departSpeed="max"/>
<vehicle id="heavy_low_1648" type="Car" depart="340.59" route="heavy_low_route_19" departLane="best" departSpeed="max"/>
<vehicle id="heavy_low_406" type="Car" depart="344.83" route="heavy_low_route_3" departLane="best" departSpeed="max"/>
<vehicle id="heavy_low_1933" type="Car" depart="346.78" route="heavy_low_route_22" departLane="best" departSpeed="max"/>
<vehicle id="heavy_low_2072" type="Bus" depart="346.79" route="heavy_low_route_23" departLane="best" departSpeed="max"/>
<vehicle id="heavy_low_75" type="Bike" depart="347.57" route="heavy_low_route_0" departLane="best" departSpeed="max"/>
<vehicle id="heavy_low_44" type="Bus" depart="352.69" route="heavy_low_route_0" departLane="best" departSpeed="max"/>
<vehicle id="heavy_low_1354" type="Bus" depart="354.12" route="heavy_low_route_15" departLane="best" departSpeed="max"/>
<vehicle id="heavy_low_2119" type="Car" depart="355.45" route="heavy_low_route_23" departLane="best" departSpeed="max"/>
<vehicle id="heavy_low_1300" type="Bike" depart="355.67" route="heavy_low_route_14" departLane="best" departSpeed="max"/>
<vehicle id="heavy_low_1900" type="Bike" depart="356.31" route="heavy_low_route_21" departLane="best" departSpeed="max"/>
<vehicle id="heavy_low_320" type="Truck" depart="357.17" route="heavy_low_route_3" departLane="best" departSpeed="max"/>
<vehicle id="heavy_low_1604" type="Bike" depart="358.92" route="heavy_low_route_18" departLane="best" departSpeed="max"/>
<vehicle id="heavy_low_2137" type="Car" depart="362.72" route="heavy_low_route_24" departLane="best" departSpeed="max"/>
<vehicle id="heavy_low_2398" type="Bike" depart="363.41" route="heavy_low_route_26" departLane="best" departSpeed="max"/>
<vehicle id="heavy_low_374" type="Car" depart="364.66" route="heavy_low_route_3" departLane="best" departSpeed="max"/>
<vehicle id="heavy_low_193" type="Car" depart="367.43" route="heavy_low_route_1" departLane="best" departSpeed="max"/>
<vehicle id="heavy_low_913" type="Car" depart="367.98" route="heavy_low_route_10" departLane="best" departSpeed="max"/>
<vehicle id="heavy_low_2024" type="Bike" depart="368.02" route="heavy_low_route_23" departLane="best" departSpeed="max"/>
<vehicle id="heavy_low_1591" type="Car" depart="373.29" route="heavy_low_route_18" departLane="best" departSpeed="max"/>
<vehicle id="heavy_low_2248" type="Bus" depart="377.03" route="heavy_low_route_25" departLane="best" departSpeed="max"/>
<vehicle id="heavy_low_1319" type="Truck" depart="378.15" route="heavy_low_route_14" departLane="best" departSpeed="max"/>
<vehicle id="heavy_low_455" type="Car" depart="379.29" route="heavy_low_route_4" departLane="best" departSpeed="max"/>
<vehicle id="heavy_low_604" type="Bike" depart="380.08" route="heavy_low_route_6" departLane="best" departSpeed="max"/>
<vehicle id="heavy_low_1624" type="Bike" depart="380.20" route="heavy_low_route_18" departLane="best" departSpeed="max"/>
<vehicle id="heavy_low_2282" type="Car" depart="382.73" route="heavy_low_route_25" departLane="best" departSpeed="max"/>
<vehicle id="heavy_low_2447" type="Bus" depart="382.90" route="heavy_low_route_27" departLane="best" departSpeed="max"/>
<vehicle id="heavy_low_2462" type="Bike" depart="387.57" route="heavy_low_route_27" departLane="best" departSpeed="max"/>
<vehicle id="heavy_low_46" type="Car" depart="389.92" route="heavy_low_route_0" departLane="best" departSpeed="max"/>
<vehicle id="heavy_low_2046" type="Bus" depart="390.22" route="heavy_low_route_23" departLane="best" departSpeed="max"/>
<vehicle id="heavy_low_1283" type="Bike" depart="390.27" route="heavy_low_route_14" departLane="best" departSpeed="max"/>
<vehicle id="heavy_low_1989" type="Truck" depart="393.69" route="heavy_low_route_22" departLane="best" departSpeed="max"/>
<vehicle id="heavy_low_717" type="Car" depart="396.09" route="heavy_low_route_7" departLane="best" departSpeed="max"/>
<vehicle id="heavy_low_6" type="Truck" depart="396.15" route="heavy_low_route_0" departLane="best" departSpeed="max"/>
<vehicle id="heavy_low_1402" type="Car" depart="396.39" route="heavy_low_route_15" departLane="best" departSpeed="max"/>
<vehicle id="heavy_low_551" type="Truck" depart="397.39" route="heavy_low_route_6" departLane="best" departSpeed="max"/>
<vehicle id="heavy_low_385" type="Bus" depart="398.11" route="heavy_low_route_3" departLane="best" departSpeed="max"/>
<vehicle id="heavy_low_1527" type="Bike" depart="398.19" route="heavy_low_route_17" departLane="best" departSpeed="max"/>
<vehicle id="heavy_low_1512" type="Bike" depart="398.25" route="heavy_low_route_17" departLane="best" departSpeed="max"/>
<vehicle id="heavy_low_1962" type="Car" depart="398.84" route="heavy_low_route_22" departLane="best" departSpeed="max"/>
<vehicle id="heavy_low_1909" type="Car" depart="399.05" route="heavy_low_route_22" departLane="best" departSpeed="max"/>
<vehicle id="heavy_low_784" type="Bike" depart="402.58" route="heavy_low_route_8" departLane="best" departSpeed="max"/>
<vehicle id="heavy_low_1202" type="Truck" depart="402.58" route="heavy_low_route_13" departLane="best" departSpeed="max"/>
<vehicle id="heavy_low_1771" type="Bus" depart="402.71" route="heavy_low_route_20" departLane="best" departSpeed="max"/>
<vehicle id="heavy_low_339" type="Bike" depart="402.72" route="heavy_low_route_3" departLane="best" departSpeed="max"/>
<vehicle id="heavy_low_2025" type="Bus" depart="402.73" route="heavy_low_route_23" departLane="best" departSpeed="max"/>
<vehicle id="heavy_low_1957" type="Car" depart="403.88" route="heavy_low_route_22" departLane="best" departSpeed="max"/>
<vehicle id="heavy_low_1265" type="Bus" depart="404.65" route="heavy_low_route_14" departLane="best" departSpeed="max"/>
<vehicle id="heavy_low_326" type="Bike" depart="407.38" route="heavy_low_route_3" departLane="best" departSpeed="max"/>
<vehicle id="heavy_low_1276" type="Bike" depart="412.09" route="heavy_low_route_14" departLane="best" departSpeed="max"/>
<vehicle id="heavy_low_1836" type="Car" depart="416.14" route="heavy_low_route_21" departLane="best" departSpeed="max"/>