<routes>

<vType id="Car" accel="2.6" decel="4.5" length="5" maxSpeed="16"/>
<vType id="Bike" accel="2.1" decel="4.0" length="2" maxSpeed="14"/>
<vType id="Bus" accel="1.0" decel="2.0" length="12" maxSpeed="12"/>
<vType id="Truck" accel="1.0" decel="2.0" length="10" maxSpeed="11"/>

<route id="light_route_0" edges="E6 E1 E3 E9 E10"/>
<route id="light_route_1" edges="E4 E0 E3 E9 E10"/>
<route id="light_route_2" edges="E4 E5 -E11 -E10 -E9"/>
<route id="light_route_3" edges="-E7 E1 E3 E9 E10"/>
<route id="light_route_4" edges="E6 E1 E2 -E10 -E9"/>
<route id="light_route_5" edges="E6 E1 E2 -E10 -E9"/>
<route id="light_route_6" edges="-E7 E1 E2 -E10 -E9"/>
<route id="light_route_7" edges="E4 E5 -E11 -E10 -E9"/>
<route id="light_route_8" edges="-E7 E1 E3 E9 E10"/>
<route id="light_route_9" edges="-E7 E1 E2 -E10 -E9"/>
<route id="light_route_10" edges="E4 E5 -E11 -E10 -E9"/>
<route id="light_route_11" edges="-E7 E1 E3 E9 E10"/>
<route id="light_route_12" edges="E6 E1 E2 -E10 -E9"/>
<route id="light_route_13" edges="E4 E0 E3 E9 E10"/>
<route id="light_route_14" edges="E6 E1 E2 -E10 -E9"/>

<vehicle id="light_244" type="Car" depart="5.65" route="light_route_9" departLane="best" departSpeed="max"/>
<vehicle id="light_161" type="Car" depart="7.07" route="light_route_6" departLane="best" departSpeed="max"/>
<vehicle id="light_221" type="Car" depart="8.42" route="light_route_8" departLane="best" departSpeed="max"/>
<vehicle id="light_3" type="Car" depart="15.88" route="light_route_0" departLane="best" departSpeed="max"/>
<vehicle id="light_357" type="Bike" depart="36.11" route="light_route_13" departLane="best" departSpeed="max"/>
<vehicle id="light_247" type="Car" depart="37.05" route="light_route_9" departLane="best" departSpeed="max"/>
<vehicle id="light_223" type="Car" depart="52.38" route="light_route_8" departLane="best" departSpeed="max"/>
<vehicle id="light_336" type="Bike" depart="57.96" route="light_route_12" departLane="best" departSpeed="max"/>
<vehicle id="light_51" type="Car" depart="61.64" route="light_route_2" departLane="best" departSpeed="max"/>
<vehicle id="light_114" type="Car" depart="76.10" route="light_route_4" departLane="best" departSpeed="max"/>
<vehicle id="light_54" type="Car" depart="84.80" route="light_route_2" departLane="best" departSpeed="max"/>
<vehicle id="light_123" type="Bike" depart="139.66" route="light_route_4" departLane="best" departSpeed="max"/>
<vehicle id="light_94" type="Car" depart="142.69" route="light_route_3" departLane="best" departSpeed="max"/>
<vehicle id="light_327" type="Car" depart="146.71" route="light_route_12" departLane="best" departSpeed="max"/>
<vehicle id="light_396" type="Car" depart="152.45" route="light_route_14" departLane="best" departSpeed="max"/>
<vehicle id="light_111" type="Car" depart="160.53" route="light_route_4" departLane="best" departSpeed="max"/>
<vehicle id="light_403" type="Bike" depart="168.59" route="light_route_14" departLane="best" departSpeed="max"/>
<vehicle id="light_333" type="Car" depart="213.32" route="light_route_12" departLane="best" departSpeed="max"/>
<vehicle id="light_128" type="Bus" depart="215.13" route="light_route_4" departLane="best" departSpeed="max"/>
<vehicle id="light_346" type="Car" depart="215.19" route="light_route_12" departLane="best" departSpeed="max"/>
<vehicle id="light_317" type="Bike" depart="217.84" route="light_route_11" departLane="best" departSpeed="max"/>
<vehicle id="light_215" type="Bike" depart="221.69" route="light_route_8" departLane="best" departSpeed="max"/>
<vehicle id="light_65" type="Bike" depart="225.12" route="light_route_2" departLane="best" departSpeed="max"/>
<vehicle id="light_325" type="Bike" depart="232.87" route="light_route_12" departLane="best" departSpeed="max"/>
<vehicle id="light_395" type="Truck" depart="238.22" route="light_route_14" departLane="best" departSpeed="max"/>
<vehicle id="light_252" type="Truck" depart="249.10" route="light_route_9" departLane="best" departSpeed="max"/>
<vehicle id="light_383" type="Car" depart="253.98" route="light_route_13" departLane="best" departSpeed="max"/>
<vehicle id="light_334" type="Car" depart="269.59" route="light_route_12" departLane="best" departSpeed="max"/>
<vehicle id="light_377" type="Bike" depart="271.37" route="light_route_13" departLane="best" departSpeed="max"/>
<vehicle id="light_183" type="Car" depart="272.02" route="light_route_6" departLane="best" departSpeed="max"/>
<vehicle id="light_331" type="Car" depart="276.41" route="light_route_12" departLane="best" departSpeed="max"/>
<vehicle id="light_324" type="Truck" depart="289.11" route="light_route_12" departLane="best" departSpeed="max"/>
<vehicle id="light_13" type="Bus" depart="305.38" route="light_route_0" departLane="best" departSpeed="max"/>
<vehicle id="light_11" type="Car" depart="307.76" route="light_route_0" departLane="best" departSpeed="max"/>
<vehicle id="light_339" type="Bike" depart="309.49" route="light_route_12" departLane="best" departSpeed="max"/>
<vehicle id="light_293" type="Bike" depart="310.81" route="light_route_10" departLane="best" departSpeed="max"/>
<vehicle id="light_199" type="Car" depart="313.23" route="light_route_7" departLane="best" departSpeed="max"/>
<vehicle id="light_48" type="Car" depart="324.04" route="light_route_1" departLane="best" departSpeed="max"/>
<vehicle id="light_378" type="Bike" depart="329.81" route="light_route_13" departLane="best" departSpeed="max"/>
<vehicle id="light_216" type="Bike" depart="331.88" route="light_route_8" departLane="best" departSpeed="max"/>
<vehicle id="light_285" type="Truck" depart="333.45" route="light_route_10" departLane="best" departSpeed="max"/>
<vehicle id="light_381" type="Bus" depart="338.32" route="light_route_13" departLane="best" departSpeed="max"/>
<vehicle id="light_386" type="Car" depart="350.20" route="light_route_13" departLane="best" departSpeed="max"/>
<vehicle id="light_2" type="Car" depart="374.16" route="light_route_0" departLane="best" departSpeed="max"/>
<vehicle id="light_353" type="Car" depart="391.79" route="light_route_13" departLane="best" departSpeed="max"/>
<vehicle id="light_89" type="Bike" depart="413.48" route="light_route_3" departLane="best" departSpeed="max"/>
<vehicle id="light_104" type="Car" depart="427.54" route="light_route_3" departLane="best" departSpeed="max"/>
<vehicle id="light_361" type="Bike" depart="439.07" route="light_route_13" departLane="best" departSpeed="max"/>
<vehicle id="light_194" type="Truck" depart="453.45" route="light_route_7" departLane="best" departSpeed="max"/>
<vehicle id="light_389" type="Truck" depart="459.81" route="light_route_14" departLane="best" departSpeed="max"/>
<vehicle id="light_42" type="Car" depart="481.55" route="light_route_1" departLane="best" departSpeed="max"/>
<vehicle id="light_311" type="Car" depart="484.46" route="light_route_11" departLane="best" departSpeed="max"/>
<vehicle id="light_77" type="Bike" depart="500.53" route="light_route_2" departLane="best" departSpeed="max"/>
<vehicle id="light_228" type="Truck" depart="505.26" route="light_route_8" departLane="best" departSpeed="max"/>
<vehicle id="light_31" type="Car" depart="506.30" route="light_route_1" departLane="best" departSpeed="max"/>
<vehicle id="light_47" type="Car" depart="507.91" route="light_route_1" departLane="best" departSpeed="max"/>
<vehicle id="light_155" type="Car" depart="510.82" route="light_route_5" departLane="best" departSpeed="max"/>
<vehicle id="light_91" type="Car" depart="515.24" route="light_route_3" departLane="best" departSpeed="max"/>
<vehicle id="light_78" type="Car" depart="515.68" route="light_route_2" departLane="best" departSpeed="max"/>
<vehicle id="light_230" type="Bike" depart="518.10" route="light_route_8" departLane="best" departSpeed="max"/>
<vehicle id="light_88" type="Bus" depart="518.11" route="light_route_3" departLane="best" departSpeed="max"/>
<vehicle id="light_277" type="Car" depart="520.02" route="light_route_10" departLane="best" departSpeed="max"/>
<vehicle id="light_83" type="Car" depart="523.79" route="light_route_3" departLane="best" departSpeed="max"/>
<vehicle id="light_79" type="Bus" depart="529.98" route="light_route_2" departLane="best" departSpeed="max"/>
<vehicle id="light_1" type="Car" depart="534.16" route="light_route_0" departLane="best" departSpeed="max"/>
<vehicle id="light_60" type="Car" depart="543.52" route="light_route_2" departLane="best" departSpeed="max"/>
<vehicle id="light_332" type="Truck" depart="545.49" route="light_route_12" departLane="best" departSpeed="max"/>
<vehicle id="light_406" type="Truck" depart="546.25" route="light_route_14" departLane="best" departSpeed="max"/>
<vehicle id="light_69" type="Car" depart="556.52" route="light_route_2" departLane="best" departSpeed="max"/>
<vehicle id="light_141" type="Bus" depart="583.04" route="light_route_5" departLane="best" departSpeed="max"/>
<vehicle id="light_419" type="Car" depart="587.26" route="light_route_14" departLane="best" departSpeed="max"/>
<vehicle id="light_366" type="Car" depart="588.58" route="light_route_13" departLane="best" departSpeed="max"/>
<vehicle id="light_382" type="Car" depart="591.37" route="light_route_13" departLane="best" departSpeed="max"/>
<vehicle id="light_36" type="Bus" depart="598.49" route="light_route_1" departLane="best" departSpeed="max"/>
<vehicle id="light_103" type="Bus" depart="603.90" route="light_route_3" departLane="best" departSpeed="max"/>
<vehicle id="light_263" type="Bike" depart="614.12" route="light_route_9" departLane="best" departSpeed="max"/>
<vehicle id="light_18" type="Car" depart="619.48" route="light_route_0" departLane="best" departSpeed="max"/>
<vehicle id="light_68" type="Bus" depart="621.17" route="light_route_2" departLane="best" departSpeed="max"/>
<vehicle id="light_344" type="Car" depart="623.69" route="light_route_12" departLane="best" departSpeed="max"/>
<vehicle id="light_22" type="Bike" depart="625.01" route="light_route_1" departLane="best" departSpeed="max"/>
<vehicle id="light_43" type="Car" depart="633.58" route="light_route_1" departLane="best" departSpeed="max"/>
<vehicle id="light_80" type="Truck" depart="656.68" route="light_route_2" departLane="best" departSpeed="max"/>
<vehicle id="light_220" type="Bike" depart="663.36" route="light_route_8" departLane="best" departSpeed="max"/>
<vehicle id="light_142" type="Bike" depart="664.11" route="light_route_5" departLane="best" departSpeed="max"/>
<vehicle id="light_274" type="Bike" depart="673.44" route="light_route_10" departLane="best" departSpeed="max"/>
<vehicle id="light_356" type="Car" depart="693.91" route="light_route_13" departLane="best" departSpeed="max"/>
<vehicle id="light_380" type="Bus" depart="694.34" route="light_route_13" departLane="best" departSpeed="max"/>
<vehicle id="light_329" type="Bike" depart="696.52" route="light_route_12" departLane="best" departSpeed="max"/>
<vehicle id="light_288" type="Bike" depart="705.83" route="light_route_10" departLane="best" departSpeed="max"/>
<vehicle id="light_231" type="Bus" depart="722.49" route="light_route_8" departLane="best" departSpeed="max"/>
<vehicle id="light_387" type="Bike" depart="727.70" route="light_route_13" departLane="best" departSpeed="max"/>
<vehicle id="light_113" type="Car" depart="739.30" route="light_route_4" departLane="best" departSpeed="max"/>
<vehicle id="light_130" type="Car" depart="742.35" route="light_route_5" departLane="best" departSpeed="max"/>
<vehicle id="light_106" type="Car" depart="755.46" route="light_route_3" departLane="best" departSpeed="max"/>
<vehicle id="light_27" type="Bike" depart="760.29" route="light_route_1" departLane="best" departSpeed="max"/>
<vehicle id="light_326" type="Car" depart="763.28" route="light_route_12" departLane="best" departSpeed="max"/>
<vehicle id="light_233" type="Bus" depart="770.46" route="light_route_9" departLane="best" departSpeed="max"/>
<vehicle id="light_246" type="Bike" depart="781.80" route="light_route_9" departLane="best" departSpeed="max"/>
<vehicle id="light_409" type="Bike" depart="783.15" route="light_route_14" departLane="best" departSpeed="max"/>
<vehicle id="light_410" type="Bike" depart="787.85" route="light_route_14" departLane="best" departSpeed="max"/>
<vehicle id="light_172" type="Truck" depart="800.08" route="light_route_6" departLane="best" departSpeed="max"/>
<vehicle id="light_126" type="Car" depart="805.24" route="light_route_4" departLane="best" departSpeed="max"/>
<vehicle id="light_149" type="Car" depart="806.70" route="light_route_5" departLane="best" departSpeed="max"/>
<vehicle id="light_397" type="Car" depart="809.50" route="light_route_14" departLane="best" departSpeed="max"/>
<vehicle id="light_84" type="Car" depart="814.40" route="light_route_3" departLane="best" departSpeed="max"/>
<vehicle id="light_122" type="Bus" depart="817.55" route="light_route_4" departLane="best" departSpeed="max"/>
<vehicle id="light_257" type="Bike" depart="827.14" route="light_route_9" departLane="best" departSpeed="max"/>
<vehicle id="light_164" type="Car" depart="835.96" route="light_route_6" departLane="best" departSpeed="max"/>
<vehicle id="light_170" type="Car" depart="860.18" route="light_route_6" departLane="best" departSpeed="max"/>
<vehicle id="light_135" type="Bus" depart="860.94" route="light_route_5" departLane="best" departSpeed="max"/>
<vehicle id="light_290" type="Bike" depart="877.16" route="light_route_10" departLane="best" departSpeed="max"/>
<vehicle id="light_341" type="Car" depart="893.30" route="light_route_12" departLane="best" departSpeed="max"/>
<vehicle id="light_71" type="Truck" depart="925.18" route="light_route_2" departLane="best" departSpeed="max"/>
<vehicle id="light_318" type="Car" depart="942.19" route="light_route_11" departLane="best" departSpeed="max"/>
<vehicle id="light_418" type="Car" depart="947.04" route="light_route_14" departLane="best" departSpeed="max"/>
<vehicle id="light_408" type="Bike" depart="963.40" route="light_route_14" departLane="best" departSpeed="max"/>
<vehicle id="light_352" type="Bus" depart="971.98" route="light_route_13" departLane="best" departSpeed="max"/>
<vehicle id="light_304" type="Bike" depart="978.84" route="light_route_11" departLane="best" departSpeed="max"/>
<vehicle id="light_99" type="Car" depart="979.13" route="light_route_3" departLane="best" departSpeed="max"/>
<vehicle id="light_270" type="Bike" depart="979.28" route="light_route_10" departLane="best" departSpeed="max"/>
<vehicle id="light_156" type="Car" depart="981.09" route="light_route_5" departLane="best" departSpeed="max"/>
<vehicle id="light_242" type="Car" depart="981.74" route="light_route_9" departLane="best" departSpeed="max"/>
<vehicle id="light_146" type="Car" depart="981.82" route="light_route_5" departLane="best" departSpeed="max"/>
<vehicle id="light_15" type="Car" depart="990.33" route="light_route_0" departLane="best" departSpeed="max"/>
<vehicle id="light_102" type="Car" depart="991.82" route="light_route_3" departLane="best" departSpeed="max"/>
<vehicle id="light_259" type="Bike" depart="992.28" route="light_route_9" departLane="best" departSpeed="max"/>
<vehicle id="light_50" type="Bike" depart="994.05" route="light_route_1" departLane="best" departSpeed="max"/>
<vehicle id="light_348" type="Bus" depart="994.46" route="light_route_12" departLane="best" departSpeed="max"/>
<vehicle id="light_30" type="Bike" depart="1004.68" route="light_route_1" departLane="best" departSpeed="max"/>
<vehicle id="light_234" type="Truck" depart="1019.82" route="light_route_9" departLane="best" departSpeed="max"/>
<vehicle id="light_203" type="Car" depart="1024.78" route="light_route_7" departLane="best" departSpeed="max"/>
<vehicle id="light_206" type="Car" depart="1024.88" route="light_route_7" departLane="best" departSpeed="max"/>
<vehicle id="light_393" type="Car" depart="1030.01" route="light_route_14" departLane="best" departSpeed="max"/>
<vehicle id="light_124" type="Bus" depart="1036.67" route="light_route_4" departLane="best" departSpeed="max"/>
<vehicle id="light_66" type="Bike" depart="1037.90" route="light_route_2" departLane="best" departSpeed="max"/>
<vehicle id="light_198" type="Car" depart="1042.92" route="light_route_7" departLane="best" departSpeed="max"/>
<vehicle id="light_385" type="Bike" depart="1044.54" route="light_route_13" departLane="best" departSpeed="max"/>
<vehicle id="light_112" type="Car" depart="1045.49" route="light_route_4" departLane="best" departSpeed="max"/>
<vehicle id="light_59" type="Bike" depart="1047.25" route="light_route_2" departLane="best" departSpeed="max"/>
<vehicle id="light_57" type="Car" depart="1050.45" route="light_route_2" departLane="best" departSpeed="max"/>
<vehicle id="light_238" type="Bus" depart="1051.21" route="light_route_9" departLane="best" departSpeed="max"/>
<vehicle id="light_193" type="Car" depart="1066.37" route="light_route_7" departLane="best" departSpeed="max"/>
<vehicle id="light_354" type="Car" depart="1070.03" route="light_route_13" departLane="best" departSpeed="max"/>
<vehicle id="light_398" type="Car" depart="1071.64" route="light_route_14" departLane="best" departSpeed="max"/>
<vehicle id="light_85" type="Bike" depart="1073.61" route="light_route_3" departLane="best" departSpeed="max"/>
<vehicle id="light_52" type="Car" depart="1096.91" route="light_route_2" departLane="best" departSpeed="max"/>
<vehicle id="light_313" type="Bus" depart="1101.98" route="light_route_11" departLane="best" departSpeed="max"/>
<vehicle id="light_182" type="Car" depart="1123.05" route="light_route_6" departLane="best" departSpeed="max"/>
<vehicle id="light_153" type="Car" depart="1160.28" route="light_route_5" departLane="best" departSpeed="max"/>
<vehicle id="light_316" type="Car" depart="1181.90" route="light_route_11" departLane="best" departSpeed="max"/>
<vehicle id="light_286" type="Bike" depart="1193.34" route="light_route_10" departLane="best" departSpeed="max"/>
<vehicle id="light_186" type="Car" depart="1195.72" route="light_route_7" departLane="best" departSpeed="max"/>
<vehicle id="light_107" type="Truck" depart="1198.07" route="light_route_4" departLane="best" departSpeed="max"/>
<vehicle id="light_414" type="Bike" depart="1199.16" route="light_route_14" departLane="best" departSpeed="max"/>
<vehicle id="light_280" type="Car" depart="1206.46" route="light_route_10" departLane="best" departSpeed="max"/>
<vehicle id="light_138" type="Car" depart="1212.18" route="light_route_5" departLane="best" departSpeed="max"/>
<vehicle id="light_143" type="Truck" depart="1213.93" route="light_route_5" departLane="best" departSpeed="max"/>
<vehicle id="light_405" type="Bus" depart="1233.12" route="light_route_14" departLane="best" departSpeed="max"/>
<vehicle id="light_171" type="Bike" depart="1237.90" route="light_route_6" departLane="best" departSpeed="max"/>
<vehicle id="light_271" type="Car" depart="1252.57" route="light_route_10" departLane="best" departSpeed="max"/>
<vehicle id="light_368" type="Bike" depart="1263.64" route="light_route_13" departLane="best" departSpeed="max"/>
<vehicle id="light_279" type="Bike" depart="1279.95" route="light_route_10" departLane="best" departSpeed="max"/>
<vehicle id="light_209" type="Car" depart="1283.39" route="light_route_7" departLane="best" departSpeed="max"/>
<vehicle id="light_236" type="Truck" depart="1284.57" route="light_route_9" departLane="best" departSpeed="max"/>
<vehicle id="light_243" type="Car" depart="1298.51" route="light_route_9" departLane="best" departSpeed="max"/>
<vehicle id="light_105" type="Car" depart="1300.06" route="light_route_3" departLane="best" departSpeed="max"/>
<vehicle id="light_23" type="Bus" depart="1311.12" route="light_route_1" departLane="best" departSpeed="max"/>
<vehicle id="light_20" type="Car" depart="1312.73" route="light_route_1" departLane="best" departSpeed="max"/>
<vehicle id="light_273" type="Car" depart="1316.18" route="light_route_10" departLane="best" departSpeed="max"/>
<vehicle id="light_308" type="Car" depart="1320.32" route="light_route_11" departLane="best" departSpeed="max"/>
<vehicle id="light_229" type="Car" depart="1336.07" route="light_route_8" departLane="best" departSpeed="max"/>
<vehicle id="light_192" type="Car" depart="1344.86" route="light_route_7" departLane="best" departSpeed="max"/>
<vehicle id="light_41" type="Bike" depart="1347.46" route="light_route_1" departLane="best" departSpeed="max"/>
<vehicle id="light_129" type="Car" depart="1348.33" route="light_route_4" departLane="best" departSpeed="max"/>
<vehicle id="light_297" type="Bus" depart="1359.92" route="light_route_10" departLane="best" departSpeed="max"/>
<vehicle id="light_307" type="Bus" depart="1361.56" route="light_route_11" departLane="best" departSpeed="max"/>
<vehicle id="light_174" type="Truck" depart="1362.41" route="light_route_6" departLane="best" departSpeed="max"/>
<vehicle id="light_412" type="Bus" depart="1368.80" route="light_route_14" departLane="best" departSpeed="max"/>
<vehicle id="light_365" type="Car" depart="1379.58" route="light_route_13" departLane="best" departSpeed="max"/>
<vehicle id="light_305" type="Car" depart="1391.45" route="light_route_11" departLane="best" departSpeed="max"/>
<vehicle id="light_96" type="Car" depart="1409.46" route="light_route_3" departLane="best" departSpeed="max"/>
<vehicle id="light_362" type="Truck" depart="1418.93" route="light_route_13" departLane="best" departSpeed="max"/>
<vehicle id="light_278" type="Car" depart="1426.48" route="light_route_10" departLane="best" departSpeed="max"/>
<vehicle id="light_224" type="Car" depart="1426.51" route="light_route_8" departLane="best" departSpeed="max"/>
<vehicle id="light_291" type="Bus" depart="1433.23" route="light_route_10" departLane="best" departSpeed="max"/>
<vehicle id="light_363" type="Bike" depart="1441.46" route="light_route_13" departLane="best" departSpeed="max"/>
<vehicle id="light_44" type="Bike" depart="1454.33" route="light_route_1" departLane="best" departSpeed="max"/>
<vehicle id="light_73" type="Car" depart="1454.64" route="light_route_2" departLane="best" departSpeed="max"/>
<vehicle id="light_145" type="Bus" depart="1476.36" route="light_route_5" departLane="best" departSpeed="max"/>
<vehicle id="light_178" type="Car" depart="1477.42" route="light_route_6" departLane="best" departSpeed="max"/>
<vehicle id="light_63" type="Car" depart="1491.64" route="light_route_2" departLane="best" departSpeed="max"/>
<vehicle id="light_119" type="Car" depart="1491.66" route="light_route_4" departLane="best" departSpeed="max"/>
<vehicle id="light_17" type="Bike" depart="1496.19" route="light_route_0" departLane="best" departSpeed="max"/>
<vehicle id="light_197" type="Truck" depart="1504.93" route="light_route_7" departLane="best" departSpeed="max"/>
<vehicle id="light_33" type="Car" depart="1509.06" route="light_route_1" departLane="best" departSpeed="max"/>
<vehicle id="light_283" type="Truck" depart="1518.45" route="light_route_10" departLane="best" departSpeed="max"/>
<vehicle id="light_21" type="Car" depart="1525.56" route="light_route_1" departLane="best" departSpeed="max"/>
<vehicle id="light_82" type="Bike" depart="1532.36" route="light_route_3" departLane="best" departSpeed="max"/>
<vehicle id="light_407" type="Car" depart="1533.14" route="light_route_14" departLane="best" departSpeed="max"/>
<vehicle id="light_359" type="Car" depart="1534.29" route="light_route_13" departLane="best" departSpeed="max"/>
<vehicle id="light_248" type="Bus" depart="1548.59" route="light_route_9" departLane="best" departSpeed="max"/>
<vehicle id="light_272" type="Car" depart="1571.64" route="light_route_10" departLane="best" departSpeed="max"/>
<vehicle id="light_235" type="Car" depart="1571.75" route="light_route_9" departLane="best" departSpeed="max"/>
<vehicle id="light_76" type="Bike" depart="1579.03" route="light_route_2" departLane="best" departSpeed="max"/>
<vehicle id="light_29" type="Truck" depart="1580.15" route="light_route_1" departLane="best" departSpeed="max"/>
<vehicle id="light_40" type="Car" depart="1589.40" route="light_route_1" departLane="best" departSpeed="max"/>
<vehicle id="light_190" type="Car" depart="1591.58" route="light_route_7" departLane="best" departSpeed="max"/>
<vehicle id="light_37" type="Car" depart="1598.56" route="light_route_1" departLane="best" departSpeed="max"/>
<vehicle id="light_249" type="Car" depart="1599.93" route="light_route_9" departLane="best" departSpeed="max"/>
<vehicle id="light_92" type="Car" depart="1611.69" route="light_route_3" departLane="best" departSpeed="max"/>
<vehicle id="light_8" type="Truck" depart="1612.38" route="light_route_0" departLane="best" departSpeed="max"/>
<vehicle id="light_133" type="Bike" depart="1615.65" route="light_route_5" departLane="best" departSpeed="max"/>
<vehicle id="light_402" type="Bike" depart="1626.71" route="light_route_14" departLane="best" departSpeed="max"/>
<vehicle id="light_415" type="Bike" depart="1627.58" route="light_route_14" departLane="best" departSpeed="max"/>
<vehicle id="light_212" type="Truck" depart="1640.64" route="light_route_8" departLane="best" departSpeed="max"/>
<vehicle id="light_67" type="Car" depart="1644.43" route="light_route_2" departLane="best" departSpeed="max"/>
<vehicle id="light_258" type="Car" depart="1657.23" route="light_route_9" departLane="best" departSpeed="max"/>
<vehicle id="light_364" type="Car" depart="1665.32" route="light_route_13" departLane="best" departSpeed="max"/>
<vehicle id="light_267" type="Bike" depart="1676.84" route="light_route_9" departLane="best" departSpeed="max"/>
<vehicle id="light_218" type="Truck" depart="1701.11" route="light_route_8" departLane="best" departSpeed="max"/>
<vehicle id="light_275" type="Bus" depart="1712.92" route="light_route_10" departLane="best" departSpeed="max"/>
<vehicle id="light_25" type="Bike" depart="1716.89" route="light_route_1" departLane="best" departSpeed="max"/>
<vehicle id="light_46" type="Bus" depart="1717.94" route="light_route_1" departLane="best" departSpeed="max"/>
<vehicle id="light_388" type="Car" depart="1720.38" route="light_route_14" departLane="best" departSpeed="max"/>
<vehicle id="light_87" type="Car" depart="1725.16" route="light_route_3" departLane="best" departSpeed="max"/>
<vehicle id="light_338" type="Bus" depart="1732.15" route="light_route_12" departLane="best" departSpeed="max"/>
<vehicle id="light_413" type="Car" depart="1745.16" route="light_route_14" departLane="best" departSpeed="max"/>
<vehicle id="light_240" type="Truck" depart="1750.27" route="light_route_9" departLane="best" departSpeed="max"/>
<vehicle id="light_296" type="Car" depart="1766.74" route="light_route_10" departLane="best" departSpeed="max"/>
<vehicle id="light_125" type="Car" depart="1771.36" route="light_route_4" departLane="best" departSpeed="max"/>
<vehicle id="light_390" type="Bus" depart="1789.32" route="light_route_14" departLane="best" departSpeed="max"/>
<vehicle id="light_309" type="Bike" depart="1790.17" route="light_route_11" departLane="best" departSpeed="max"/>
<vehicle id="light_74" type="Bus" depart="1801.28" route="light_route_2" departLane="best" departSpeed="max"/>
<vehicle id="light_10" type="Car" depart="1801.58" route="light_route_0" departLane="best" departSpeed="max"/>
<vehicle id="light_167" type="Car" depart="1808.48" route="light_route_6" departLane="best" departSpeed="max"/>
<vehicle id="light_144" type="Bike" depart="1816.62" route="light_route_5" departLane="best" departSpeed="max"/>
<vehicle id="light_165" type="Car" depart="1826.23" route="light_route_6" departLane="best" departSpeed="max"/>
<vehicle id="light_147" type="Truck" depart="1847.07" route="light_route_5" departLane="best" departSpeed="max"/>
<vehicle id="light_268" type="Bike" depart="1848.84" route="light_route_9" departLane="best" departSpeed="max"/>
<vehicle id="light_345" type="Car" depart="1851.45" route="light_route_12" departLane="best" departSpeed="max"/>
<vehicle id="light_7" type="Car" depart="1852.88" route="light_route_0" departLane="best" departSpeed="max"/>
<vehicle id="light_70" type="Bus" depart="1860.41" route="light_route_2" departLane="best" departSpeed="max"/>
<vehicle id="light_269" type="Car" depart="1870.60" route="light_route_9" departLane="best" departSpeed="max"/>
<vehicle id="light_157" type="Car" depart="1870.71" route="light_route_5" departLane="best" departSpeed="max"/>
<vehicle id="light_24" type="Bike" depart="1875.25" route="light_route_1" departLane="best" departSpeed="max"/>
<vehicle id="light_45" type="Car" depart="1878.25" route="light_route_1" departLane="best" departSpeed="max"/>
<vehicle id="light_322" type="Bus" depart="1878.38" route="light_route_12" departLane="best" departSpeed="max"/>
<vehicle id="light_355" type="Car" depart="1879.58" route="light_route_13" departLane="best" departSpeed="max"/>
<vehicle id="light_350" type="Bus" depart="1894.47" route="light_route_13" departLane="best" departSpeed="max"/>
<vehicle id="light_227" type="Bus" depart="1902.56" route="light_route_8" departLane="best" departSpeed="max"/>
<vehicle id="light_32" type="Bike" depart="1909.80" route="light_route_1" departLane="best" departSpeed="max"/>
<vehicle id="light_369" type="Truck" depart="1920.43" route="light_route_13" departLane="best" departSpeed="max"/>
<vehicle id="light_349" type="Bus" depart="1923.15" route="light_route_12" departLane="best" departSpeed="max"/>
<vehicle id="light_358" type="Bus" depart="1932.10" route="light_route_13" departLane="best" departSpeed="max"/>
<vehicle id="light_152" type="Bike" depart="1937.15" route="light_route_5" departLane="best" departSpeed="max"/>
<vehicle id="light_328" type="Bus" depart="1938.88" route="light_route_12" departLane="best" departSpeed="max"/>
<vehicle id="light_187" type="Car" depart="1949.77" route="light_route_7" departLane="best" departSpeed="max"/>
<vehicle id="light_115" type="Bike" depart="1951.66" route="light_route_4" departLane="best" departSpeed="max"/>