<routes>

<vType id="Car" accel="2.6" decel="4.5" length="5" maxSpeed="16"/>
<vType id="Bike" accel="2.1" decel="4.0" length="2" maxSpeed="14"/>
<vType id="Bus" accel="1.0" decel="2.0" length="12" maxSpeed="12"/>
<vType id="Truck" accel="1.0" decel="2.0" length="10" maxSpeed="11"/>

<route id="medium_mid_route_0" edges="E6 E1 E2 -E10 -E9"/>
<route id="medium_mid_route_1" edges="E4 E0 E3 E9 E10"/>
<route id="medium_mid_route_2" edges="E6 E1 E3 E9 E10"/>
<route id="medium_mid_route_3" edges="E6 E1 E3 E9 E10"/>
<route id="medium_mid_route_4" edges="-E7 E1 E2 -E10 -E9"/>
<route id="medium_mid_route_5" edges="-E7 E1 E2 -E10 -E9"/>
<route id="medium_mid_route_6" edges="E4 E0 E3 E9 E10"/>
<route id="medium_mid_route_7" edges="E7 E8 -E3 E2 -E10 -E9"/>
<route id="medium_mid_route_8" edges="-E7 E1 E3 E9 E10"/>
<route id="medium_mid_route_9" edges="E4 E0 E3 E9 E10"/>
<route id="medium_mid_route_10" edges="E6 E1 E2 -E10 -E9"/>
<route id="medium_mid_route_11" edges="-E7 E1 E3 E9 E10"/>
<route id="medium_mid_route_12" edges="E6 E1 E3 E9 E10"/>
<route id="medium_mid_route_13" edges="E6 E1 E2 -E10 -E9"/>
<route id="medium_mid_route_14" edges="E6 E1 E2 -E10 -E9"/>
<route id="medium_mid_route_15" edges="-E7 E1 E2 -E10 -E9"/>
<route id="medium_mid_route_16" edges="E4 E5 -E11 -E10 -E9"/>
<route id="medium_mid_route_17" edges="E4 E5 -E11 -E10 -E9"/>
<route id="medium_mid_route_18" edges="E4 E5 -E11 -E10 -E9"/>
<route id="medium_mid_route_19" edges="-E7 E1 E3 E9 E10"/>
<route id="medium_mid_route_20" edges="-E7 E1 E3 E9 E10"/>
<route id="medium_mid_route_21" edges="-E7 E1 E2 -E10 -E9"/>

<vehicle id="medium_mid_704" type="Truck" depart="9.91" route="medium_mid_route_11" departLane="best" departSpeed="max"/>
<vehicle id="medium_mid_91" type="Car" depart="10.92" route="medium_mid_route_1" departLane="best" departSpeed="max"/>
<vehicle id="medium_mid_245" type="Car" depart="11.22" route="medium_mid_route_4" departLane="best" departSpeed="max"/>
<vehicle id="medium_mid_873" type="Car" depart="17.82" route="medium_mid_route_14" departLane="best" departSpeed="max"/>
<vehicle id="medium_mid_261" type="Bike" depart="26.08" route="medium_mid_route_4" departLane="best" departSpeed="max"/>
<vehicle id="medium_mid_1123" type="Bus" depart="26.33" route="medium_mid_route_18" departLane="best" departSpeed="max"/>
<vehicle id="medium_mid_625" type="Truck" depart="28.86" route="medium_mid_route_10" departLane="best" departSpeed="max"/>
<vehicle id="medium_mid_866" type="Car" depart="36.51" route="medium_mid_route_14" departLane="best" departSpeed="max"/>
<vehicle id="medium_mid_960" type="Car" depart="38.40" route="medium_mid_route_15" departLane="best" departSpeed="max"/>
<vehicle id="medium_mid_1130" type="Car" depart="50.60" route="medium_mid_route_18" departLane="best" departSpeed="max"/>
<vehicle id="medium_mid_781" type="Bike" depart="50.62" route="medium_mid_route_13" departLane="best" departSpeed="max"/>
<vehicle id="medium_mid_1126" type="Bus" depart="58.76" route="medium_mid_route_18" departLane="best" departSpeed="max"/>
<vehicle id="medium_mid_324" type="Bus" depart="67.35" route="medium_mid_route_5" departLane="best" departSpeed="max"/>
<vehicle id="medium_mid_22" type="Car" depart="74.12" route="medium_mid_route_0" departLane="best" departSpeed="max"/>
<vehicle id="medium_mid_1310" type="Truck" depart="74.12" route="medium_mid_route_21" departLane="best" departSpeed="max"/>
<vehicle id="medium_mid_700" type="Car" depart="77.18" route="medium_mid_route_11" departLane="best" departSpeed="max"/>
<vehicle id="medium_mid_168" type="Bike" depart="87.48" route="medium_mid_route_2" departLane="best" departSpeed="max"/>
<vehicle id="medium_mid_416" type="Car" depart="98.03" route="medium_mid_route_7" departLane="best" departSpeed="max"/>
<vehicle id="medium_mid_688" type="Car" depart="102.13" route="medium_mid_route_11" departLane="best" departSpeed="max"/>
<vehicle id="medium_mid_34" type="Truck" depart="109.63" route="medium_mid_route_0" departLane="best" departSpeed="max"/>
<vehicle id="medium_mid_407" type="Bike" depart="115.85" route="medium_mid_route_7" departLane="best" departSpeed="max"/>
<vehicle id="medium_mid_267" type="Bike" depart="115.87" route="medium_mid_route_4" departLane="best" departSpeed="max"/>
<vehicle id="medium_mid_926" type="Bus" depart="117.96" route="medium_mid_route_15" departLane="best" departSpeed="max"/>
<vehicle id="medium_mid_84" type="Car" depart="118.48" route="medium_mid_route_1" departLane="best" departSpeed="max"/>
<vehicle id="medium_mid_1203" type="Bike" depart="122.28" route="medium_mid_route_19" departLane="best" departSpeed="max"/>
<vehicle id="medium_mid_172" type="Bike" depart="123.79" route="medium_mid_route_2" departLane="best" departSpeed="max"/>
<vehicle id="medium_mid_402" type="Bus" depart="131.39" route="medium_mid_route_7" departLane="best" departSpeed="max"/>
<vehicle id="medium_mid_829" type="Car" depart="132.11" route="medium_mid_route_13" departLane="best" departSpeed="max"/>
<vehicle id="medium_mid_297" type="Bike" depart="135.00" route="medium_mid_route_5" departLane="best" departSpeed="max"/>
<vehicle id="medium_mid_294" type="Bike" depart="137.82" route="medium_mid_route_5" departLane="best" departSpeed="max"/>
<vehicle id="medium_mid_1055" type="Car" depart="139.34" route="medium_mid_route_17" departLane="best" departSpeed="max"/>
<vehicle id="medium_mid_1115" type="Bike" depart="140.79" route="medium_mid_route_18" departLane="best" departSpeed="max"/>
<vehicle id="medium_mid_236" type="Car" depart="140.86" route="medium_mid_route_3" departLane="best" departSpeed="max"/>
<vehicle id="medium_mid_1133" type="Bike" depart="140.96" route="medium_mid_route_18" departLane="best" departSpeed="max"/>
<vehicle id="medium_mid_872" type="Bike" depart="141.37" route="medium_mid_route_14" departLane="best" departSpeed="max"/>
<vehicle id="medium_mid_1313" type="Car" depart="153.05" route="medium_mid_route_21" departLane="best" departSpeed="max"/>
<vehicle id="medium_mid_434" type="Car" depart="166.91" route="medium_mid_route_7" departLane="best" departSpeed="max"/>
<vehicle id="medium_mid_1229" type="Bus" depart="176.77" route="medium_mid_route_20" departLane="best" departSpeed="max"/>
<vehicle id="medium_mid_1218" type="Bike" depart="179.68" route="medium_mid_route_19" departLane="best" departSpeed="max"/>
<vehicle id="medium_mid_393" type="Bike" depart="184.36" route="medium_mid_route_6" departLane="best" departSpeed="max"/>
<vehicle id="medium_mid_589" type="Bus" depart="185.94" route="medium_mid_route_9" departLane="best" departSpeed="max"/>
<vehicle id="medium_mid_1200" type="Bike" depart="187.80" route="medium_mid_route_19" departLane="best" departSpeed="max"/>
<vehicle id="medium_mid_1324" type="Car" depart="188.55" route="medium_mid_route_21" departLane="best" departSpeed="max"/>
<vehicle id="medium_mid_342" type="Car" depart="189.06" route="medium_mid_route_5" departLane="best" departSpeed="max"/>
<vehicle id="medium_mid_224" type="Car" depart="191.71" route="medium_mid_route_3" departLane="best" departSpeed="max"/>
<vehicle id="medium_mid_1096" type="Bus" depart="191.86" route="medium_mid_route_17" departLane="best" departSpeed="max"/>
<vehicle id="medium_mid_199" type="Car" depart="197.73" route="medium_mid_route_3" departLane="best" departSpeed="max"/>
<vehicle id="medium_mid_1208" type="Car" depart="198.42" route="medium_mid_route_19" departLane="best" departSpeed="max"/>
<vehicle id="medium_mid_1263" type="Car" depart="201.26" route="medium_mid_route_20" departLane="best" departSpeed="max"/>
<vehicle id="medium_mid_828" type="Car" depart="203.09" route="medium_mid_route_13" departLane="best" departSpeed="max"/>
<vehicle id="medium_mid_349" type="Bike" depart="204.76" route="medium_mid_route_6" departLane="best" departSpeed="max"/>
<vehicle id="medium_mid_1150" type="Car" depart="211.16" route="medium_mid_route_18" departLane="best" departSpeed="max"/>
<vehicle id="medium_mid_728" type="Truck" depart="216.85" route="medium_mid_route_12" departLane="best" departSpeed="max"/>
<vehicle id="medium_mid_1132" type="Car" depart="220.31" route="medium_mid_route_18" departLane="best" departSpeed="max"/>
<vehicle id="medium_mid_832" type="Bike" depart="222.10" route="medium_mid_route_13" departLane="best" departSpeed="max"/>
<vehicle id="medium_mid_685" type="Truck" depart="227.30" route="medium_mid_route_11" departLane="best" departSpeed="max"/>
<vehicle id="medium_mid_1241" type="Truck" depart="229.89" route="medium_mid_route_20" departLane="best" departSpeed="max"/>
<vehicle id="medium_mid_1008" type="Car" depart="231.02" route="medium_mid_route_16" departLane="best" departSpeed="max"/>
<vehicle id="medium_mid_861" type="Car" depart="232.88" route="medium_mid_route_14" departLane="best" departSpeed="max"/>
<vehicle id="medium_mid_795" type="Bike" depart="235.68" route="medium_mid_route_13" departLane="best" departSpeed="max"/>
<vehicle id="medium_mid_999" type="Truck" depart="237.12" route="medium_mid_route_16" departLane="best" departSpeed="max"/>
<vehicle id="medium_mid_492" type="Car" depart="238.46" route="medium_mid_route_8" departLane="best" departSpeed="max"/>
<vehicle id="medium_mid_354" type="Car" depart="239.29" route="medium_mid_route_6" departLane="best" departSpeed="max"/>
<vehicle id="medium_mid_318" type="Bike" depart="241.57" route="medium_mid_route_5" departLane="best" departSpeed="max"/>
<vehicle id="medium_mid_594" type="Bus" depart="244.08" route="medium_mid_route_9" departLane="best" departSpeed="max"/>
<vehicle id="medium_mid_285" type="Car" depart="248.70" route="medium_mid_route_4" departLane="best" departSpeed="max"/>
<vehicle id="medium_mid_855" type="Bike" depart="250.92" route="medium_mid_route_14" departLane="best" departSpeed="max"/>
<vehicle id="medium_mid_79" type="Bus" depart="251.04" route="medium_mid_route_1" departLane="best" departSpeed="max"/>
<vehicle id="medium_mid_20" type="Bus" depart="251.24" route="medium_mid_route_0" departLane="best" departSpeed="max"/>
<vehicle id="medium_mid_979" type="Car" depart="253.61" route="medium_mid_route_16" departLane="best" departSpeed="max"/>
<vehicle id="medium_mid_764" type="Car" depart="255.30" route="medium_mid_route_12" departLane="best" departSpeed="max"/>
<vehicle id="medium_mid_202" type="Bus" depart="255.83" route="medium_mid_route_3" departLane="best" departSpeed="max"/>
<vehicle id="medium_mid_480" type="Bike" depart="255.87" route="medium_mid_route_8" departLane="best" departSpeed="max"/>
<vehicle id="medium_mid_1302" type="Truck" depart="258.03" route="medium_mid_route_21" departLane="best" departSpeed="max"/>
<vehicle id="medium_mid_51" type="Truck" depart="258.70" route="medium_mid_route_0" departLane="best" departSpeed="max"/>
<vehicle id="medium_mid_772" type="Bike" depart="259.07" route="medium_mid_route_13" departLane="best" departSpeed="max"/>
<vehicle id="medium_mid_621" type="Car" depart="263.63" route="medium_mid_route_10" departLane="best" departSpeed="max"/>
<vehicle id="medium_mid_799" type="Car" depart="263.99" route="medium_mid_route_13" departLane="best" departSpeed="max"/>
<vehicle id="medium_mid_1235" type="Car" depart="265.76" route="medium_mid_route_20" departLane="best" departSpeed="max"/>
<vehicle id="medium_mid_1239" type="Bike" depart="269.54" route="medium_mid_route_20" departLane="best" departSpeed="max"/>
<vehicle id="medium_mid_244" type="Car" depart="272.46" route="medium_mid_route_4" departLane="best" departSpeed="max"/>
<vehicle id="medium_mid_730" type="Car" depart="273.05" route="medium_mid_route_12" departLane="best" departSpeed="max"/>
<vehicle id="medium_mid_1227" type="Car" depart="276.84" route="medium_mid_route_20" departLane="best" departSpeed="max"/>
<vehicle id="medium_mid_491" type="Bike" depart="282.53" route="medium_mid_route_8" departLane="best" departSpeed="max"/>
<vehicle id="medium_mid_1337" type="Car" depart="283.44" route="medium_mid_route_21" departLane="best" departSpeed="max"/>
<vehicle id="medium_mid_1022" type="Car" depart="287.74" route="medium_mid_route_16" departLane="best" departSpeed="max"/>
<vehicle id="medium_mid_1287" type="Car" depart="288.12" route="medium_mid_route_21" departLane="best" departSpeed="max"/>
<vehicle id="medium_mid_465" type="Bus" depart="293.34" route="medium_mid_route_8" departLane="best" departSpeed="max"/>
<vehicle id="medium_mid_941" type="Truck" depart="293.49" route="medium_mid_route_15" departLane="best" departSpeed="max"/>
<vehicle id="medium_mid_557" type="Bike" depart="295.70" route="medium_mid_route_9" departLane="best" departSpeed="max"/>
<vehicle id="medium_mid_93" type="Car" depart="304.35" route="medium_mid_route_1" departLane="best" departSpeed="max"/>
<vehicle id="medium_mid_181" type="Car" depart="310.08" route="medium_mid_route_2" departLane="best" departSpeed="max"/>
<vehicle id="medium_mid_14" type="Bus" depart="316.05" route="medium_mid_route_0" departLane="best" departSpeed="max"/>
<vehicle id="medium_mid_1343" type="Bike" depart="317.97" route="medium_mid_route_21" departLane="best" departSpeed="max"/>
<vehicle id="medium_mid_1266" type="Car" depart="322.60" route="medium_mid_route_20" departLane="best" departSpeed="max"/>
<vehicle id="medium_mid_884" type="Car" depart="322.83" route="medium_mid_route_14" departLane="best" departSpeed="max"/>
<vehicle id="medium_mid_216" type="Truck" depart="323.35" route="medium_mid_route_3" departLane="best" departSpeed="max"/>
<vehicle id="medium_mid_1010" type="Bike" depart="324.75" route="medium_mid_route_16" departLane="best" departSpeed="max"/>
<vehicle id="medium_mid_971" type="Bus" depart="332.04" route="medium_mid_route_16" departLane="best" departSpeed="max"/>
<vehicle id="medium_mid_312" type="Bike" depart="332.73" route="medium_mid_route_5" departLane="best" departSpeed="max"/>
<vehicle id="medium_mid_1107" type="Car" depart="337.98" route="medium_mid_route_17" departLane="best" departSpeed="max"/>
<vehicle id="medium_mid_936" type="Car" depart="346.57" route="medium_mid_route_15" departLane="best" departSpeed="max"/>
<vehicle id="medium_mid_467" type="Car" depart="352.31" route="medium_mid_route_8" departLane="best" departSpeed="max"/>
<vehicle id="medium_mid_1045" type="Bike" depart="352.84" route="medium_mid_route_17" departLane="best" departSpeed="max"/>
<vehicle id="medium_mid_299" type="Bike" depart="354.20" route="medium_mid_route_5" departLane="best" departSpeed="max"/>
<vehicle id="medium_mid_1072" type="Bus" depart="360.66" route="medium_mid_route_17" departLane="best" departSpeed="max"/>
<vehicle id="medium_mid_238" type="Truck" depart="360.91" route="medium_mid_route_3" departLane="best" departSpeed="max"/>
<vehicle id="medium_mid_1248" type="Bike" depart="363.43" route="medium_mid_route_20" departLane="best" departSpeed="max"/>
<vehicle id="medium_mid_112" type="Bike" depart="364.51" route="medium_mid_route_1" departLane="best" departSpeed="max"/>
<vehicle id="medium_mid_379" type="Bike" depart="369.02" route="medium_mid_route_6" departLane="best" departSpeed="max"/>
<vehicle id="medium_mid_12" type="Car" depart="370.54" route="medium_mid_route_0" departLane="best" departSpeed="max"/>
<vehicle id="medium_mid_1265" type="Car" depart="372.68" route="medium_mid_route_20" departLane="best" departSpeed="max"/>
<vehicle id="medium_mid_281" type="Car" depart="383.64" route="medium_mid_route_4" departLane="best" departSpeed="max"/>
<vehicle id="medium_mid_1039" type="Car" depart="388.87" route="medium_mid_route_17" departLane="best" departSpeed="max"/>
<vehicle id="medium_mid_948" type="Truck" depart="395.76" route="medium_mid_route_15" departLane="best" departSpeed="max"/>
<vehicle id="medium_mid_758" type="Car" depart="396.50" route="medium_mid_route_12" departLane="best" departSpeed="max"/>
<vehicle id="medium_mid_1243" type="Bus" depart="398.41" route="medium_mid_route_20" departLane="best" departSpeed="max"/>
<vehicle id="medium_mid_761" type="Truck" depart="403.56" route="medium_mid_route_12" departLane="best" departSpeed="max"/>
<vehicle id="medium_mid_421" type="Car" depart="409.59" route="medium_mid_route_7" departLane="best" departSpeed="max"/>
<vehicle id="medium_mid_646" type="Bus" depart="410.93" route="medium_mid_route_10" departLane="best" departSpeed="max"/>
<vehicle id="medium_mid_1232" type="Car" depart="411.66" route="medium_mid_route_20" departLane="best" departSpeed="max"/>
<vehicle id="medium_mid_616" type="Bus" depart="412.07" route="medium_mid_route_10" departLane="best" departSpeed="max"/>
<vehicle id="medium_mid_8" type="Car" depart="421.50" route="medium_mid_route_0" departLane="best" departSpeed="max"/>
<vehicle id="medium_mid_984" type="Car" depart="425.02" route="medium_mid_route_16" departLane="best" departSpeed="max"/>
<vehicle id="medium_mid_145" type="Car" depart="432.98" route="medium_mid_route_1" departLane="best" departSpeed="max"/>
<vehicle id="medium_mid_1277" type="Car" depart="436.54" route="medium_mid_route_21" departLane="best" departSpeed="max"/>
<vehicle id="medium_mid_451" type="Car" depart="438.02" route="medium_mid_route_7" departLane="best" departSpeed="max"/>
<vehicle id="medium_mid_833" type="Car" depart="441.43" route="medium_mid_route_13" departLane="best" departSpeed="max"/>
<vehicle id="medium_mid_524" type="Bike" depart="452.19" route="medium_mid_route_8" departLane="best" departSpeed="max"/>
<vehicle id="medium_mid_1335" type="Bus" depart="460.01" route="medium_mid_route_21" departLane="best" departSpeed="max"/>
<vehicle id="medium_mid_755" type="Car" depart="460.86" route="medium_mid_route_12" departLane="best" departSpeed="max"/>
<vehicle id="medium_mid_746" type="Car" depart="462.28" route="medium_mid_route_12" departLane="best" departSpeed="max"/>
<vehicle id="medium_mid_645" type="Truck" depart="464.06" route="medium_mid_route_10" departLane="best" departSpeed="max"/>
<vehicle id="medium_mid_325" type="Car" depart="467.59" route="medium_mid_route_5" departLane="best" departSpeed="max"/>
<vehicle id="medium_mid_978" type="Truck" depart="470.03" route="medium_mid_route_16" departLane="best" departSpeed="max"/>
<vehicle id="medium_mid_1056" type="Truck" depart="470.13" route="medium_mid_route_17" departLane="best" departSpeed="max"/>
<vehicle id="medium_mid_1280" type="Bus" depart="473.14" route="medium_mid_route_21" departLane="best" departSpeed="max"/>
<vehicle id="medium_mid_263" type="Bike" depart="475.28" route="medium_mid_route_4" departLane="best" departSpeed="max"/>
<vehicle id="medium_mid_1246" type="Car" depart="475.29" route="medium_mid_route_20" departLane="best" departSpeed="max"/>
<vehicle id="medium_mid_130" type="Car" depart="475.55" route="medium_mid_route_1" departLane="best" departSpeed="max"/>
<vehicle id="medium_mid_1042" type="Car" depart="479.98" route="medium_mid_route_17" departLane="best" departSpeed="max"/>
<vehicle id="medium_mid_672" type="Car" depart="482.22" route="medium_mid_route_11" departLane="best" departSpeed="max"/>
<vehicle id="medium_mid_949" type="Car" depart="484.39" route="medium_mid_route_15" departLane="best" departSpeed="max"/>
<vehicle id="medium_mid_347" type="Car" depart="484.61" route="medium_mid_route_6" departLane="best" departSpeed="max"/>
<vehicle id="medium_mid_162" type="Bike" depart="488.20" route="medium_mid_route_2" departLane="best" departSpeed="max"/>
<vehicle id="medium_mid_1195" type="Car" depart="493.05" route="medium_mid_route_19" departLane="best" departSpeed="max"/>
<vehicle id="medium_mid_197" type="Bus" depart="493.36" route="medium_mid_route_3" departLane="best" departSpeed="max"/>
<vehicle id="medium_mid_877" type="Truck" depart="496.04" route="medium_mid_route_14" departLane="best" departSpeed="max"/>
<vehicle id="medium_mid_765" type="Car" depart="496.81" route="medium_mid_route_12" departLane="best" departSpeed="max"/>
<vehicle id="medium_mid_1053" type="Bike" depart="499.72" route="medium_mid_route_17" departLane="best" departSpeed="max"/>
<vehicle id="medium_mid_601" type="Car" depart="506.32" route="medium_mid_route_9" departLane="best" departSpeed="max"/>
<vehicle id="medium_mid_811" type="Bus" depart="507.56" route="medium_mid_route_13" departLane="best" departSpeed="max"/>
<vehicle id="medium_mid_786" type="Car" depart="507.59" route="medium_mid_route_13" departLane="best" departSpeed="max"/>
<vehicle id="medium_mid_37" type="Bike" depart="511.98" route="medium_mid_route_0" departLane="best" departSpeed="max"/>
<vehicle id="medium_mid_660" type="Bike" depart="512.12" route="medium_mid_route_10" departLane="best" departSpeed="max"/>
<vehicle id="medium_mid_918" type="Bus" depart="513.19" route="medium_mid_route_15" departLane="best" departSpeed="max"/>
<vehicle id="medium_mid_1309" type="Bus" depart="513.36" route="medium_mid_route_21" departLane="best" departSpeed="max"/>
<vehicle id="medium_mid_288" type="Car" depart="515.55" route="medium_mid_route_5" departLane="best" departSpeed="max"/>
<vehicle id="medium_mid_1212" type="Bus" depart="519.92" route="medium_mid_route_19" departLane="best" departSpeed="max"/>
<vehicle id="medium_mid_426" type="Car" depart="521.53" route="medium_mid_route_7" departLane="best" departSpeed="max"/>
<vehicle id="medium_mid_830" type="Bus" depart="524.96" route="medium_mid_route_13" departLane="best" departSpeed="max"/>
<vehicle id="medium_mid_498" type="Bike" depart="526.23" route="medium_mid_route_8" departLane="best" departSpeed="max"/>
<vehicle id="medium_mid_336" type="Bike" depart="526.33" route="medium_mid_route_5" departLane="best" departSpeed="max"/>
<vehicle id="medium_mid_137" type="Car" depart="526.72" route="medium_mid_route_1" departLane="best" departSpeed="max"/>
<vehicle id="medium_mid_1202" type="Bus" depart="527.51" route="medium_mid_route_19" departLane="best" departSpeed="max"/>
<vehicle id="medium_mid_733" type="Truck" depart="527.69" route="medium_mid_route_12" departLane="best" departSpeed="max"/>
<vehicle id="medium_mid_148" type="Car" depart="528.46" route="medium_mid_route_2" departLane="best" departSpeed="max"/>
<vehicle id="medium_mid_70" type="Bike" depart="537.29" route="medium_mid_route_0" departLane="best" departSpeed="max"/>
<vehicle id="medium_mid_731" type="Bike" depart="538.56" route="medium_mid_route_12" departLane="best" departSpeed="max"/>
<vehicle id="medium_mid_741" type="Car" depart="540.23" route="medium_mid_route_12" departLane="best" departSpeed="max"/>
<vehicle id="medium_mid_928" type="Car" depart="540.45" route="medium_mid_route_15" departLane="best" departSpeed="max"/>
<vehicle id="medium_mid_307" type="Bike" depart="540.53" route="medium_mid_route_5" departLane="best" departSpeed="max"/>
<vehicle id="medium_mid_39" type="Bike" depart="540.85" route="medium_mid_route_0" departLane="best" departSpeed="max"/>
<vehicle id="medium_mid_330" type="Car" depart="540.89" route="medium_mid_route_5" departLane="best" departSpeed="max"/>
<vehicle id="medium_mid_53" type="Car" depart="548.92" route="medium_mid_route_0" departLane="best" departSpeed="max"/>
<vehicle id="medium_mid_683" type="Bike" depart="548.93" route="medium_mid_route_11" departLane="best" departSpeed="max"/>
<vehicle id="medium_mid_822" type="Bike" depart="549.21" route="medium_mid_route_13" departLane="best" departSpeed="max"/>
<vehicle id="medium_mid_1206" type="Car" depart="553.14" route="medium_mid_route_19" departLane="best" departSpeed="max"/>
<vehicle id="medium_mid_1040" type="Bike" depart="555.24" route="medium_mid_route_17" departLane="best" departSpeed="max"/>
<vehicle id="medium_mid_665" type="Bike" depart="558.33" route="medium_mid_route_11" departLane="best" departSpeed="max"/>
<vehicle id="medium_mid_1253" type="Car" depart="564.69" route="medium_mid_route_20" departLane="best" departSpeed="max"/>
<vehicle id="medium_mid_1076" type="Car" depart="565.41" route="medium_mid_route_17" departLane="best" departSpeed="max"/>
<vehicle id="medium_mid_854" type="Bike" depart="567.77" route="medium_mid_route_14" departLane="best" departSpeed="max"/>
<vehicle id="medium_mid_372" type="Truck" depart="570.79" route="medium_mid_route_6" departLane="best" departSpeed="max"/>
<vehicle id="medium_mid_1326" type="Bus" depart="571.49" route="medium_mid_route_21" departLane="best" departSpeed="max"/>
<vehicle id="medium_mid_59" type="Bike" depart="574.59" route="medium_mid_route_0" departLane="best" departSpeed="max"/>
<vehicle id="medium_mid_439" type="Car" depart="577.12" route="medium_mid_route_7" departLane="best" departSpeed="max"/>
<vehicle id="medium_mid_412" type="Bike" depart="578.56" route="medium_mid_route_7" departLane="best" departSpeed="max"/>
<vehicle id="medium_mid_1295" type="Car" depart="582.92" route="medium_mid_route_21" departLane="best" departSpeed="max"/>
<vehicle id="medium_mid_690" type="Bike" depart="583.58" route="medium_mid_route_11" departLane="best" departSpeed="max"/>
<vehicle id="medium_mid_886" type="Bike" depart="584.16" route="medium_mid_route_14" departLane="best" departSpeed="max"/>
<vehicle id="medium_mid_769" type="Bike" depart="586.52" route="medium_mid_route_13" departLane="best" departSpeed="max"/>
<vehicle id="medium_mid_454" type="Bike" depart="586.56" route="medium_mid_route_7" departLane="best" departSpeed="max"/>
<vehicle id="medium_mid_1148" type="Car" depart="587.89" route="medium_mid_route_18" departLane="best" departSpeed="max"/>
<vehicle id="medium_mid_1283" type="Bike" depart="589.70" route="medium_mid_route_21" departLane="best" departSpeed="max"/>
<vehicle id="medium_mid_1285" type="Bus" depart="591.28" route="medium_mid_route_21" departLane="best" departSpeed="max"/>
<vehicle id="medium_mid_975" type="Car" depart="596.56" route="medium_mid_route_16" departLane="best" departSpeed="max"/>
<vehicle id="medium_mid_633" type="Bus" depart="597.15" route="medium_mid_route_10" departLane="best" departSpeed="max"/>
<vehicle id="medium_mid_624" type="Car" depart="597.18" route="medium_mid_route_10" departLane="best" departSpeed="max"/>
<vehicle id="medium_mid_1075" type="Car" depart="597.47" route="medium_mid_route_17" departLane="best" departSpeed="max"/>
<vehicle id="medium_mid_306" type="Bike" depart="598.93" route="medium_mid_route_5" departLane="best" departSpeed="max"/>
<vehicle id="medium_mid_1058" type="Car" depart="599.70" route="medium_mid_route_17" departLane="best" departSpeed="max"/>
<vehicle id="medium_mid_304" type="Bike" depart="601.90" route="medium_mid_route_5" departLane="best" departSpeed="max"/>
<vehicle id="medium_mid_241" type="Bike" depart="602.54" route="medium_mid_route_3" departLane="best" departSpeed="max"/>
<vehicle id="medium_mid_363" type="Bus" depart="605.00" route="medium_mid_route_6" departLane="best" departSpeed="max"/>
<vehicle id="medium_mid_1068" type="Bus" depart="606.88" route="medium_mid_route_17" departLane="best" departSpeed="max"/>
<vehicle id="medium_mid_327" type="Car" depart="608.93" route="medium_mid_route_5" departLane="best" departSpeed="max"/>
<vehicle id="medium_mid_487" type="Car" depart="609.15" route="medium_mid_route_8" departLane="best" departSpeed="max"/>
<vehicle id="medium_mid_194" type="Bike" depart="609.16" route="medium_mid_route_3" departLane="best" departSpeed="max"/>
<vehicle id="medium_mid_1238" type="Car" depart="610.12" route="medium_mid_route_20" departLane="best" departSpeed="max"/>
<vehicle id="medium_mid_334" type="Bus" depart="614.51" route="medium_mid_route_5" departLane="best" departSpeed="max"/>
<vehicle id="medium_mid_376" type="Bus" depart="614.75" route="medium_mid_route_6" departLane="best" departSpeed="max"/>
<vehicle id="medium_mid_301" type="Car" depart="618.84" route="medium_mid_route_5" departLane="best" departSpeed="max"/>
<vehicle id="medium_mid_1084" type="Car" depart="622.07" route="medium_mid_route_17" departLane="best" departSpeed="max"/>
<vehicle id="medium_mid_687" type="Car" depart="622.08" route="medium_mid_route_11" departLane="best" departSpeed="max"/>
<vehicle id="medium_mid_845" type="Car" depart="622.42" route="medium_mid_route_13" departLane="best" departSpeed="max"/>
<vehicle id="medium_mid_45" type="Truck" depart="622.93" route="medium_mid_route_0" departLane="best" departSpeed="max"/>
<vehicle id="medium_mid_1215" type="Truck" depart="626.23" route="medium_mid_route_19" departLane="best" departSpeed="max"/>
<vehicle id="medium_mid_806" type="Truck" depart="626.59" route="medium_mid_route_13" departLane="best" departSpeed="max"/>
<vehicle id="medium_mid_43" type="Bus" depart="626.97" route="medium_mid_route_0" departLane="best" departSpeed="max"/>
<vehicle id="medium_mid_1300" type="Car" depart="629.87" route="medium_mid_route_21" departLane="best" departSpeed="max"/>
<vehicle id="medium_mid_537" type="Bike" depart="631.74" route="medium_mid_route_8" departLane="best" departSpeed="max"/>
<vehicle id="medium_mid_1216" type="Bike" depart="632.82" route="medium_mid_route_19" departLane="best" departSpeed="max"/>
<vehicle id="medium_mid_526" type="Car" depart="633.42" route="medium_mid_route_8" departLane="best" departSpeed="max"/>
<vehicle id="medium_mid_111" type="Car" depart="634.33" route="medium_mid_route_1" departLane="best" departSpeed="max"/>
<vehicle id="medium_mid_938" type="Bike" depart="635.46" route="medium_mid_route_15" departLane="best" departSpeed="max"/>
<vehicle id="medium_mid_373" type="Car" depart="638.42" route="medium_mid_route_6" departLane="best" departSpeed="max"/>
<vehicle id="medium_mid_396" type="Truck" depart="638.81" route="medium_mid_route_6" departLane="best" departSpeed="max"/>
<vehicle id="medium_mid_550" type="Bike" depart="638.90" route="medium_mid_route_9" departLane="best" departSpeed="max"/>
<vehicle id="medium_mid_788" type="Car" depart="639.69" route="medium_mid_route_13" departLane="best" departSpeed="max"/>
<vehicle id="medium_mid_766" type="Car" depart="643.22" route="medium_mid_route_12" departLane="best" departSpeed="max"/>
<vehicle id="medium_mid_36" type="Car" depart="643.99" route="medium_mid_route_0" departLane="best" departSpeed="max"/>