<?xml version="1.0" encoding="UTF-8"?>

<!-- generated on 2026-03-05T01:20:16.150404+05:30 by Eclipse SUMO netedit 1.26.0
<neteditConfiguration xmlns:xsi="http://www.w3.org/2001/XMLSchema-instance" xsi:noNamespaceSchemaLocation="http://sumo.dlr.de/xsd/neteditConfiguration.xsd">

    <input>
        <sumocfg-file value="D:\Project Work\PSO\Objective_2\runsimulation.sumocfg"/>
        <sumo-net-file value="D:\Project Work\PSO\Objective_2\Network\network_signalized.net.xml"/>
    </input>

    <output>
        <output-file value="D:\Project Work\PSO\Objective_2\Network\network_signalized.net.xml"/>
    </output>

    <processing>
        <geometry.min-radius.fix.railways value="false"/>
        <geometry.avoid-overlap value="false"/>
        <geometry.max-grade.fix value="false"/>
        <offset.disable-normalization value="true"/>
        <lefthand value="0"/>
    </processing>

    <junctions>
        <no-turnarounds value="true"/>
        <junctions.corner-detail value="5"/>
        <junctions.limit-turn-speed value="5.50"/>
        <rectangular-lane-cut value="0"/>
    </junctions>

    <pedestrian>
        <walkingareas value="0"/>
    </pedestrian>

</neteditConfiguration>
-->

<net version="1.20" junctionCornerDetail="5" limitTurnSpeed="5.50" avoidOverlap="0" xmlns:xsi="http://www.w3.org/2001/XMLSchema-instance" xsi:noNamespaceSchemaLocation="http://sumo.dlr.de/xsd/net_file.xsd">

    <location netOffset="0.00,0.00" convBoundary="-378.33,-572.10,815.60,140.96" origBoundary="-10000000000.00,-10000000000.00,10000000000.00,10000000000.00" projParameter="!"/>

    <edge id=":J1_0" function="internal">
        <lane id=":J1_0_0" index="0" speed="6.58" length="9.20" shape="136.03,-197.98 133.54,-197.60 131.77,-196.52 130.70,-194.73 130.34,-192.23"/>
    </edge>
    <edge id=":J1_1" function="internal">
        <lane id=":J1_1_0" index="0" speed="13.89" length="20.90" shape="136.03,-197.98 115.13,-197.82"/>
    </edge>
    <edge id=":J1_2" function="internal">
        <lane id=":J1_2_0" index="0" speed="10.08" length="11.40" shape="136.03,-197.98 130.61,-199.31 125.88,-202.70"/>
    </edge>
    <edge id=":J1_3" function="internal">
        <lane id=":J1_3_0" index="0" speed="13.89" length="20.89" shape="136.00,-201.18 115.11,-201.02"/>
    </edge>
    <edge id=":J1_4" function="internal">
        <lane id=":J1_4_0" index="0" speed="9.01" length="5.03" shape="136.00,-201.18 131.73,-202.23 131.21,-202.60"/>
    </edge>
    <edge id=":J1_19" function="internal">
        <lane id=":J1_19_0" index="0" speed="10.08" length="11.86" shape="125.88,-202.70 125.69,-202.83 122.11,-207.72 120.72,-213.12"/>
    </edge>
    <edge id=":J1_20" function="internal">
        <lane id=":J1_20_0" index="0" speed="9.01" length="13.32" shape="131.21,-202.60 127.84,-205.01 125.02,-208.86 123.92,-213.12"/>
    </edge>
    <edge id=":J1_5" function="internal">
        <lane id=":J1_5_0" index="0" speed="6.49" length="9.03" shape="130.32,-213.14 130.68,-210.69 131.74,-208.94 133.49,-207.91 135.95,-207.58"/>
    </edge>
    <edge id=":J1_6" function="internal">
        <lane id=":J1_6_0" index="0" speed="13.89" length="20.91" shape="130.32,-213.14 130.34,-192.23"/>
    </edge>
    <edge id=":J1_7" function="internal">
        <lane id=":J1_7_0" index="0" speed="7.99" length="4.06" shape="127.12,-213.13 127.69,-209.27 127.77,-209.14"/>
    </edge>
    <edge id=":J1_8" function="internal">
        <lane id=":J1_8_0" index="0" speed="13.89" length="20.89" shape="127.12,-213.13 127.14,-192.24"/>
    </edge>
    <edge id=":J1_9" function="internal">
        <lane id=":J1_9_0" index="0" speed="9.29" length="5.07" shape="127.12,-213.13 126.42,-208.11"/>
    </edge>
    <edge id=":J1_21" function="internal">
        <lane id=":J1_21_0" index="0" speed="7.99" length="10.16" shape="127.77,-209.14 129.35,-206.53 132.11,-204.90 135.97,-204.38"/>
    </edge>
    <edge id=":J1_22" function="internal">
        <lane id=":J1_22_0" index="0" speed="9.29" length="14.37" shape="126.42,-208.11 126.38,-207.86 124.14,-204.09 120.38,-201.81 115.11,-201.02"/>
    </edge>
    <edge id=":J1_10" function="internal">
        <lane id=":J1_10_0" index="0" speed="6.56" length="9.15" shape="115.06,-207.42 117.55,-207.79 119.32,-208.86 120.38,-210.64 120.72,-213.12"/>
    </edge>
    <edge id=":J1_11" function="internal">
        <lane id=":J1_11_0" index="0" speed="13.89" length="20.89" shape="115.06,-207.42 135.95,-207.58"/>
        <lane id=":J1_11_1" index="1" speed="13.89" length="20.89" shape="115.09,-204.22 135.97,-204.38"/>
    </edge>
    <edge id=":J1_13" function="internal">
        <lane id=":J1_13_0" index="0" speed="9.01" length="2.94" shape="115.09,-204.22 117.94,-203.51"/>
    </edge>
    <edge id=":J1_23" function="internal">
        <lane id=":J1_23_0" index="0" speed="9.01" length="15.43" shape="117.94,-203.51 119.36,-203.16 123.24,-200.37 126.06,-196.50 127.14,-192.24"/>
    </edge>
    <edge id=":J1_14" function="internal">
        <lane id=":J1_14_0" index="0" speed="6.49" length="9.03" shape="120.74,-192.24 120.39,-194.70 119.34,-196.44 117.59,-197.48 115.13,-197.82"/>
    </edge>
    <edge id=":J1_15" function="internal">
        <lane id=":J1_15_0" index="0" speed="13.89" length="20.87" shape="120.74,-192.24 120.72,-213.12"/>
    </edge>
    <edge id=":J1_16" function="internal">
        <lane id=":J1_16_0" index="0" speed="7.99" length="4.09" shape="123.94,-192.24 123.39,-196.10 123.30,-196.26"/>
    </edge>
    <edge id=":J1_17" function="internal">
        <lane id=":J1_17_0" index="0" speed="13.89" length="20.88" shape="123.94,-192.24 123.92,-213.12"/>
    </edge>
    <edge id=":J1_18" function="internal">
        <lane id=":J1_18_0" index="0" speed="9.31" length="4.97" shape="123.94,-192.24 124.65,-197.16"/>
    </edge>
    <edge id=":J1_24" function="internal">
        <lane id=":J1_24_0" index="0" speed="7.99" length="10.14" shape="123.30,-196.26 121.74,-198.85 118.98,-200.49 115.11,-201.02"/>
    </edge>
    <edge id=":J1_25" function="internal">
        <lane id=":J1_25_0" index="0" speed="9.31" length="14.48" shape="124.65,-197.16 124.70,-197.51 126.95,-201.29 130.71,-203.58 135.97,-204.38"/>
    </edge>
    <edge id=":J2_0" function="internal">
        <lane id=":J2_0_0" index="0" speed="6.62" length="9.11" shape="-357.67,-194.45 -360.16,-194.09 -361.97,-193.05 -363.08,-191.32 -363.51,-188.91"/>
    </edge>
    <edge id=":J2_1" function="internal">
        <lane id=":J2_1_0" index="0" speed="10.37" length="24.34" shape="-357.67,-194.45 -364.27,-195.35 -369.02,-198.14 -371.92,-202.82 -372.97,-209.40"/>
        <lane id=":J2_1_1" index="1" speed="9.26" length="19.22" shape="-357.69,-197.65 -362.90,-198.36 -366.65,-200.56 -368.94,-204.26 -369.77,-209.45"/>
    </edge>
    <edge id=":J2_3" function="internal">
        <lane id=":J2_3_0" index="0" speed="6.51" length="8.97" shape="-363.37,-209.56 -362.99,-207.14 -361.92,-205.41 -360.17,-204.38 -357.74,-204.05"/>
    </edge>
    <edge id=":J2_4" function="internal">
        <lane id=":J2_4_0" index="0" speed="13.89" length="20.65" shape="-363.37,-209.56 -363.51,-188.91"/>
    </edge>
    <edge id=":J2_5" function="internal">
        <lane id=":J2_5_0" index="0" speed="8.00" length="3.86" shape="-366.57,-209.50 -365.96,-205.70"/>
    </edge>
    <edge id=":J2_6" function="internal">
        <lane id=":J2_6_0" index="0" speed="13.89" length="20.50" shape="-366.57,-209.50 -366.71,-189.01"/>
    </edge>
    <edge id=":J2_11" function="internal">
        <lane id=":J2_11_0" index="0" speed="8.00" length="10.24" shape="-365.96,-205.70 -364.28,-202.99 -361.53,-201.37 -357.71,-200.85"/>
    </edge>
    <edge id=":J2_7" function="internal">
        <lane id=":J2_7_0" index="0" speed="13.89" length="20.19" shape="-373.11,-189.20 -372.97,-209.40"/>
    </edge>
    <edge id=":J2_8" function="internal">
        <lane id=":J2_8_0" index="0" speed="10.44" length="11.64" shape="-373.11,-189.20 -371.98,-195.66 -369.25,-199.96"/>
    </edge>
    <edge id=":J2_9" function="internal">
        <lane id=":J2_9_0" index="0" speed="13.89" length="20.34" shape="-369.91,-189.11 -369.77,-209.45"/>
    </edge>
    <edge id=":J2_10" function="internal">
        <lane id=":J2_10_0" index="0" speed="9.34" length="4.28" shape="-369.91,-189.11 -369.17,-193.33"/>
    </edge>
    <edge id=":J2_12" function="internal">
        <lane id=":J2_12_0" index="0" speed="10.44" length="12.53" shape="-369.25,-199.96 -369.04,-200.29 -364.29,-203.09 -357.74,-204.05"/>
    </edge>
    <edge id=":J2_13" function="internal">
        <lane id=":J2_13_0" index="0" speed="9.34" length="14.87" shape="-369.17,-193.33 -369.01,-194.21 -366.68,-197.87 -362.91,-200.09 -357.71,-200.85"/>
    </edge>
    <edge id=":J3_0" function="internal">
        <lane id=":J3_0_0" index="0" speed="13.89" length="20.45" shape="790.76,-217.62 789.49,-197.28"/>
        <lane id=":J3_0_1" index="1" speed="13.89" length="20.45" shape="787.57,-217.89 786.29,-197.42"/>
    </edge>
    <edge id=":J3_2" function="internal">
        <lane id=":J3_2_0" index="0" speed="9.60" length="4.18" shape="787.57,-217.89 786.61,-213.82"/>
    </edge>
    <edge id=":J3_3" function="internal">
        <lane id=":J3_3_0" index="0" speed="3.65" length="1.44" shape="787.57,-217.89 786.68,-216.76"/>
    </edge>
    <edge id=":J3_11" function="internal">
        <lane id=":J3_11_0" index="0" speed="9.60" length="15.24" shape="786.61,-213.82 786.40,-212.96 783.82,-209.42 779.83,-207.28 774.43,-206.53"/>
    </edge>
    <edge id=":J3_12" function="internal">
        <lane id=":J3_12_0" index="0" speed="3.65" length="3.23" shape="786.68,-216.76 785.85,-216.43 785.08,-216.89 784.39,-218.16"/>
    </edge>
    <edge id=":J3_4" function="internal">
        <lane id=":J3_4_0" index="0" speed="6.97" length="9.78" shape="774.38,-212.93 777.19,-213.29 779.26,-214.33 780.60,-216.04 781.20,-218.42"/>
    </edge>
    <edge id=":J3_5" function="internal">
        <lane id=":J3_5_0" index="0" speed="10.29" length="25.11" shape="774.38,-212.93 781.25,-212.00 786.05,-209.08 788.80,-204.18 789.49,-197.28"/>
    </edge>
    <edge id=":J3_6" function="internal">
        <lane id=":J3_6_0" index="0" speed="8.39" length="14.60" shape="774.41,-209.73 778.51,-210.29 781.54,-211.88 783.50,-214.50 784.39,-218.16"/>
    </edge>
    <edge id=":J3_7" function="internal">
        <lane id=":J3_7_0" index="0" speed="9.18" length="19.75" shape="774.41,-209.73 779.81,-209.00 783.59,-206.70 785.75,-202.84 786.29,-197.42"/>
    </edge>
    <edge id=":J3_8" function="internal">
        <lane id=":J3_8_0" index="0" speed="6.40" length="9.04" shape="779.90,-197.70 779.65,-200.18 778.66,-201.95 776.93,-203.00 774.46,-203.33"/>
    </edge>
    <edge id=":J3_9" function="internal">
        <lane id=":J3_9_0" index="0" speed="13.89" length="20.70" shape="779.90,-197.70 781.20,-218.42"/>
        <lane id=":J3_9_1" index="1" speed="13.89" length="20.70" shape="783.09,-197.56 784.39,-218.16"/>
    </edge>
    <edge id=":J4_0" function="internal">
        <lane id=":J4_0_0" index="0" speed="6.50" length="9.03" shape="119.88,-561.27 119.52,-563.72 118.46,-565.46 116.71,-566.50 114.25,-566.83"/>
        <lane id=":J4_0_1" index="1" speed="7.99" length="14.21" shape="123.08,-561.27 122.51,-565.13 120.85,-567.88 118.09,-569.51 114.23,-570.03"/>
    </edge>
    <edge id=":J4_2" function="internal">
        <lane id=":J4_2_0" index="0" speed="9.84" length="22.03" shape="123.08,-561.27 123.81,-567.94 126.05,-572.70 129.80,-575.56 135.06,-576.52"/>
    </edge>
    <edge id=":J4_3" function="internal">
        <lane id=":J4_3_0" index="0" speed="6.51" length="9.05" shape="135.06,-566.92 132.61,-566.56 130.87,-565.51 129.82,-563.75 129.48,-561.29"/>
    </edge>
    <edge id=":J4_4" function="internal">
        <lane id=":J4_4_0" index="0" speed="13.89" length="20.81" shape="135.06,-566.92 114.25,-566.83"/>
    </edge>
    <edge id=":J4_5" function="internal">
        <lane id=":J4_5_0" index="0" speed="8.00" length="4.09" shape="135.06,-570.12 131.21,-569.56 131.04,-569.46"/>
    </edge>
    <edge id=":J4_6" function="internal">
        <lane id=":J4_6_0" index="0" speed="13.89" length="20.83" shape="135.06,-570.12 114.23,-570.03"/>
    </edge>
    <edge id=":J4_10" function="internal">
        <lane id=":J4_10_0" index="0" speed="8.00" length="10.12" shape="131.04,-569.46 128.46,-567.90 126.82,-565.14 126.28,-561.28"/>
    </edge>
    <edge id=":J4_7" function="internal">
        <lane id=":J4_7_0" index="0" speed="13.89" length="20.87" shape="114.18,-576.43 135.06,-576.52"/>
        <lane id=":J4_7_1" index="1" speed="13.89" length="20.87" shape="114.21,-573.23 135.06,-573.32"/>
    </edge>
    <edge id=":J4_9" function="internal">
        <lane id=":J4_9_0" index="0" speed="9.25" length="5.13" shape="114.21,-573.23 119.29,-572.54"/>
    </edge>
    <edge id=":J4_11" function="internal">
        <lane id=":J4_11_0" index="0" speed="9.25" length="14.26" shape="119.29,-572.54 119.48,-572.52 123.24,-570.29 125.51,-566.54 126.28,-561.28"/>
    </edge>
    <edge id=":J5_0" function="internal">
        <lane id=":J5_0_0" index="0" speed="8.96" length="18.54" shape="-371.66,145.72 -376.72,145.02 -380.29,142.87 -382.35,139.25 -382.93,134.18"/>
        <lane id=":J5_0_1" index="1" speed="7.65" length="13.25" shape="-371.68,142.52 -375.30,142.02 -377.84,140.48 -379.32,137.90 -379.73,134.28"/>
    </edge>
    <edge id=":J5_2" function="internal">
        <lane id=":J5_2_0" index="0" speed="3.90" length="2.65" shape="-373.33,134.47 -373.25,135.20 -372.95,135.71 -372.44,136.02 -371.72,136.12"/>
        <lane id=":J5_2_1" index="1" speed="6.07" length="7.95" shape="-376.53,134.37 -376.28,136.55 -375.40,138.10 -373.87,139.02 -371.70,139.32"/>
    </edge>
    <edge id=":J6_0" function="internal">
        <lane id=":J6_0_0" index="0" speed="13.89" length="20.78" shape="135.71,142.61 114.92,142.72"/>
    </edge>
    <edge id=":J6_1" function="internal">
        <lane id=":J6_1_0" index="0" speed="10.35" length="12.07" shape="135.71,142.61 129.03,141.69 124.45,138.96"/>
    </edge>
    <edge id=":J6_2" function="internal">
        <lane id=":J6_2_0" index="0" speed="13.89" length="20.79" shape="135.69,139.41 114.90,139.52"/>
    </edge>
    <edge id=":J6_3" function="internal">
        <lane id=":J6_3_0" index="0" speed="9.25" length="4.99" shape="135.69,139.41 130.75,138.73"/>
    </edge>
    <edge id=":J6_11" function="internal">
        <lane id=":J6_11_0" index="0" speed="10.35" length="12.51" shape="124.45,138.96 124.26,138.85 121.41,134.09 120.46,127.42"/>
    </edge>
    <edge id=":J6_12" function="internal">
        <lane id=":J6_12_0" index="0" speed="9.25" length="14.41" shape="130.75,138.73 130.42,138.68 126.66,136.44 124.41,132.69 123.66,127.42"/>
    </edge>
    <edge id=":J6_4" function="internal">
        <lane id=":J6_4_0" index="0" speed="6.50" length="9.03" shape="130.06,127.43 130.41,129.88 131.46,131.63 133.21,132.67 135.66,133.01"/>
    </edge>
    <edge id=":J6_5" function="internal">
        <lane id=":J6_5_0" index="0" speed="10.39" length="24.50" shape="130.06,127.43 129.11,134.08 126.27,138.85 121.54,141.73 114.92,142.72"/>
    </edge>
    <edge id=":J6_6" function="internal">
        <lane id=":J6_6_0" index="0" speed="7.99" length="14.21" shape="126.86,127.43 127.41,131.28 129.06,134.03 131.82,135.68 135.68,136.21"/>
    </edge>
    <edge id=":J6_7" function="internal">
        <lane id=":J6_7_0" index="0" speed="9.28" length="19.37" shape="126.86,127.43 126.11,132.69 123.87,136.46 120.13,138.74 114.90,139.52"/>
    </edge>
    <edge id=":J6_8" function="internal">
        <lane id=":J6_8_0" index="0" speed="6.54" length="9.10" shape="114.87,133.12 117.31,132.75 119.06,131.68 120.11,129.90 120.46,127.42"/>
    </edge>
    <edge id=":J6_9" function="internal">
        <lane id=":J6_9_0" index="0" speed="13.89" length="20.80" shape="114.87,133.12 135.66,133.01"/>
        <lane id=":J6_9_1" index="1" speed="13.89" length="20.80" shape="114.89,136.32 135.68,136.21"/>
    </edge>
    <edge id=":J7_0" function="internal">
        <lane id=":J7_0_0" index="0" speed="8.97" length="17.44" shape="775.26,128.89 774.39,133.55 772.24,136.90 768.82,138.91 764.13,139.60"/>
        <lane id=":J7_0_1" index="1" speed="7.66" length="12.46" shape="772.06,128.75 771.44,132.08 769.91,134.47 767.47,135.91 764.11,136.40"/>
    </edge>
    <edge id=":J7_2" function="internal">
        <lane id=":J7_2_0" index="0" speed="3.91" length="2.49" shape="764.08,130.00 764.75,129.90 765.24,129.61 765.55,129.14 765.67,128.47"/>
        <lane id=":J7_2_1" index="1" speed="6.08" length="7.47" shape="764.09,133.20 766.11,132.90 767.57,132.04 768.49,130.61 768.87,128.61"/>
    </edge>
    <edge id=":J8_0" function="internal">
        <lane id=":J8_0_0" index="0" speed="8.96" length="18.19" shape="-378.90,-561.43 -378.28,-566.38 -376.22,-569.93 -372.72,-572.07 -367.79,-572.82"/>
        <lane id=":J8_0_1" index="1" speed="7.65" length="12.99" shape="-375.70,-561.48 -375.26,-565.02 -373.78,-567.55 -371.29,-569.09 -367.76,-569.62"/>
    </edge>
    <edge id=":J8_2" function="internal">
        <lane id=":J8_2_0" index="0" speed="3.90" length="2.60" shape="-367.71,-563.22 -368.42,-563.11 -368.92,-562.81 -369.21,-562.30 -369.30,-561.59"/>
        <lane id=":J8_2_1" index="1" speed="6.08" length="7.79" shape="-367.74,-566.42 -369.85,-566.10 -371.35,-565.18 -372.23,-563.66 -372.50,-561.54"/>
    </edge>
    <edge id=":J9_0" function="internal">
        <lane id=":J9_0_0" index="0" speed="8.95" length="19.19" shape="808.64,-576.89 813.90,-576.14 817.52,-573.87 819.49,-570.07 819.80,-564.76"/>
        <lane id=":J9_0_1" index="1" speed="7.65" length="13.70" shape="808.64,-573.69 812.40,-573.15 814.98,-571.53 816.39,-568.82 816.61,-565.03"/>
    </edge>
    <edge id=":J9_2" function="internal">
        <lane id=":J9_2_0" index="0" speed="3.90" length="2.74" shape="810.24,-565.56 810.19,-566.32 809.91,-566.86 809.39,-567.19 808.64,-567.30"/>
        <lane id=":J9_2_1" index="1" speed="6.07" length="8.22" shape="813.43,-565.30 813.29,-567.57 812.45,-569.20 810.90,-570.17 808.64,-570.50"/>
    </edge>

    <edge id="-E0" from="J1" to="J6" priority="-1">
        <lane id="-E0_0" index="0" speed="13.89" length="319.66" shape="130.34,-192.23 130.06,127.43"/>
        <lane id="-E0_1" index="1" speed="13.89" length="319.66" shape="127.14,-192.24 126.86,127.43"/>
    </edge>
    <edge id="-E1" from="J1" to="J2" priority="-1">
        <lane id="-E1_0" index="0" speed="13.89" length="472.81" shape="115.13,-197.82 -357.67,-194.45"/>
        <lane id="-E1_1" index="1" speed="13.89" length="472.81" shape="115.11,-201.02 -357.69,-197.65"/>
    </edge>
    <edge id="-E10" from="J3" to="J9" priority="-1">
        <lane id="-E10_0" index="0" speed="13.89" length="348.35" shape="781.20,-218.42 810.24,-565.56"/>
        <lane id="-E10_1" index="1" speed="13.89" length="348.35" shape="784.39,-218.16 813.43,-565.30"/>
    </edge>
    <edge id="-E11" from="J7" to="J3" priority="-1">
        <lane id="-E11_0" index="0" speed="13.89" length="326.48" shape="765.67,128.47 779.90,-197.70"/>
        <lane id="-E11_1" index="1" speed="13.89" length="326.48" shape="768.87,128.61 783.09,-197.56"/>
    </edge>
    <edge id="-E2" from="J3" to="J1" priority="-1">
        <lane id="-E2_0" index="0" speed="13.89" length="638.45" shape="774.46,-203.33 136.03,-197.98"/>
        <lane id="-E2_1" index="1" speed="13.89" length="638.45" shape="774.43,-206.53 136.00,-201.18"/>
    </edge>
    <edge id="-E3" from="J4" to="J1" priority="-1">
        <lane id="-E3_0" index="0" speed="13.89" length="348.15" shape="129.48,-561.29 130.32,-213.14"/>
        <lane id="-E3_1" index="1" speed="13.89" length="348.15" shape="126.28,-561.28 127.12,-213.13"/>
    </edge>
    <edge id="-E4" from="J6" to="J5" priority="-1">
        <lane id="-E4_0" index="0" speed="13.89" length="486.60" shape="114.92,142.72 -371.66,145.72"/>
        <lane id="-E4_1" index="1" speed="13.89" length="486.60" shape="114.90,139.52 -371.68,142.52"/>
    </edge>
    <edge id="-E5" from="J7" to="J6" priority="-1">
        <lane id="-E5_0" index="0" speed="13.89" length="628.42" shape="764.13,139.60 135.71,142.61"/>
        <lane id="-E5_1" index="1" speed="13.89" length="628.42" shape="764.11,136.40 135.69,139.41"/>
    </edge>
    <edge id="-E6" from="J2" to="J5" priority="-1">
        <lane id="-E6_0" index="0" speed="13.89" length="323.53" shape="-363.51,-188.91 -373.33,134.47"/>
        <lane id="-E6_1" index="1" speed="13.89" length="323.53" shape="-366.71,-189.01 -376.53,134.37"/>
    </edge>
    <edge id="-E7" from="J8" to="J2" priority="-1">
        <lane id="-E7_0" index="0" speed="13.89" length="352.08" shape="-369.30,-561.59 -363.37,-209.56"/>
        <lane id="-E7_1" index="1" speed="13.89" length="352.08" shape="-372.50,-561.54 -366.57,-209.50"/>
    </edge>
    <edge id="-E8" from="J4" to="J8" priority="-1">
        <lane id="-E8_0" index="0" speed="13.89" length="481.98" shape="114.25,-566.83 -367.71,-563.22"/>
        <lane id="-E8_1" index="1" speed="13.89" length="481.98" shape="114.23,-570.03 -367.74,-566.42"/>
    </edge>
    <edge id="-E9" from="J9" to="J4" priority="-1">
        <lane id="-E9_0" index="0" speed="13.89" length="673.58" shape="808.64,-567.30 135.06,-566.92"/>
        <lane id="-E9_1" index="1" speed="13.89" length="673.58" shape="808.64,-570.50 135.06,-570.12"/>
    </edge>
    <edge id="E0" from="J6" to="J1" priority="-1">
        <lane id="E0_0" index="0" speed="13.89" length="319.66" shape="120.46,127.42 120.74,-192.24"/>
        <lane id="E0_1" index="1" speed="13.89" length="319.66" shape="123.66,127.42 123.94,-192.24"/>
    </edge>
    <edge id="E1" from="J2" to="J1" priority="-1">
        <lane id="E1_0" index="0" speed="13.89" length="472.81" shape="-357.74,-204.05 115.06,-207.42"/>
        <lane id="E1_1" index="1" speed="13.89" length="472.81" shape="-357.71,-200.85 115.09,-204.22"/>
    </edge>
    <edge id="E10" from="J9" to="J3" priority="-1">
        <lane id="E10_0" index="0" speed="13.89" length="348.35" shape="819.80,-564.76 790.76,-217.62"/>
        <lane id="E10_1" index="1" speed="13.89" length="348.35" shape="816.61,-565.03 787.57,-217.89"/>
    </edge>
    <edge id="E11" from="J3" to="J7" priority="-1">
        <lane id="E11_0" index="0" speed="13.89" length="326.48" shape="789.49,-197.28 775.26,128.89"/>
        <lane id="E11_1" index="1" speed="13.89" length="326.48" shape="786.29,-197.42 772.06,128.75"/>
    </edge>
    <edge id="E2" from="J1" to="J3" priority="-1">
        <lane id="E2_0" index="0" speed="13.89" length="638.45" shape="135.95,-207.58 774.38,-212.93"/>
        <lane id="E2_1" index="1" speed="13.89" length="638.45" shape="135.97,-204.38 774.41,-209.73"/>
    </edge>
    <edge id="E3" from="J1" to="J4" priority="-1">
        <lane id="E3_0" index="0" speed="13.89" length="348.15" shape="120.72,-213.12 119.88,-561.27"/>
        <lane id="E3_1" index="1" speed="13.89" length="348.15" shape="123.92,-213.12 123.08,-561.27"/>
    </edge>
    <edge id="E4" from="J5" to="J6" priority="-1">
        <lane id="E4_0" index="0" speed="13.89" length="486.60" shape="-371.72,136.12 114.87,133.12"/>
        <lane id="E4_1" index="1" speed="13.89" length="486.60" shape="-371.70,139.32 114.89,136.32"/>
    </edge>
    <edge id="E5" from="J6" to="J7" priority="-1">
        <lane id="E5_0" index="0" speed="13.89" length="628.42" shape="135.66,133.01 764.08,130.00"/>
        <lane id="E5_1" index="1" speed="13.89" length="628.42" shape="135.68,136.21 764.09,133.20"/>
    </edge>
    <edge id="E6" from="J5" to="J2" priority="-1">
        <lane id="E6_0" index="0" speed="13.89" length="323.53" shape="-382.93,134.18 -373.11,-189.20"/>
        <lane id="E6_1" index="1" speed="13.89" length="323.53" shape="-379.73,134.28 -369.91,-189.11"/>
    </edge>
    <edge id="E7" from="J2" to="J8" priority="-1">
        <lane id="E7_0" index="0" speed="13.89" length="352.08" shape="-372.97,-209.40 -378.90,-561.43"/>
        <lane id="E7_1" index="1" speed="13.89" length="352.08" shape="-369.77,-209.45 -375.70,-561.48"/>
    </edge>
    <edge id="E8" from="J8" to="J4" priority="-1">
        <lane id="E8_0" index="0" speed="13.89" length="481.98" shape="-367.79,-572.82 114.18,-576.43"/>
        <lane id="E8_1" index="1" speed="13.89" length="481.98" shape="-367.76,-569.62 114.21,-573.23"/>
    </edge>
    <edge id="E9" from="J4" to="J9" priority="-1" shape="124.65,-571.71 805.54,-572.09 815.60,-572.10">
        <lane id="E9_0" index="0" speed="13.89" length="673.58" shape="135.06,-576.52 805.54,-576.89 808.64,-576.89"/>
        <lane id="E9_1" index="1" speed="13.89" length="673.58" shape="135.06,-573.32 805.54,-573.69 808.64,-573.69"/>
    </edge>

    <tlLogic id="J1" type="static" programID="0" offset="0">
        <phase duration="42" state="GGgGgrrrrrGGGgrrrrr"/>
        <phase duration="3"  state="yyyyyrrrrryyyyrrrrr"/>
        <phase duration="42" state="rrrrrGGgGgrrrrGGgGg"/>
        <phase duration="3"  state="rrrrryyyyyrrrryyyyy"/>
    </tlLogic>
    <tlLogic id="J2" type="static" programID="0" offset="0">
        <phase duration="42" state="rrrGGgGGgGg"/>
        <phase duration="3"  state="rrrGygyyyyy"/>
        <phase duration="42" state="GGGGrGrrrrr"/>
        <phase duration="3"  state="yyyGryrrrrr"/>
    </tlLogic>
    <tlLogic id="J3" type="static" programID="0" offset="0">
        <phase duration="42" state="GGggrrrrGGG"/>
        <phase duration="3"  state="yyyyrrrrGyy"/>
        <phase duration="42" state="rrrrGGgGGrr"/>
        <phase duration="3"  state="rrrryyyyGrr"/>
    </tlLogic>
    <tlLogic id="J4" type="static" programID="0" offset="0">
        <phase duration="42" state="rrrGGgGGGg"/>
        <phase duration="3"  state="rrrGygyyyy"/>
        <phase duration="42" state="GGGGrGrrrr"/>
        <phase duration="3"  state="yyyGryrrrr"/>
    </tlLogic>
    <tlLogic id="J6" type="static" programID="0" offset="0">
        <phase duration="42" state="GgGgrrrrGGG"/>
        <phase duration="3"  state="yyyyrrrrGyy"/>
        <phase duration="42" state="rrrrGGgGGrr"/>
        <phase duration="3"  state="rrrryyyyGrr"/>
    </tlLogic>

    <junction id="J1" type="traffic_light" x="125.55" y="-202.69" incLanes="-E2_0 -E2_1 -E3_0 -E3_1 E1_0 E1_1 E0_0 E0_1" intLanes=":J1_0_0 :J1_1_0 :J1_19_0 :J1_3_0 :J1_20_0 :J1_5_0 :J1_6_0 :J1_21_0 :J1_8_0 :J1_22_0 :J1_10_0 :J1_11_0 :J1_11_1 :J1_23_0 :J1_14_0 :J1_15_0 :J1_24_0 :J1_17_0 :J1_25_0" shape="136.04,-196.38 135.93,-209.18 133.71,-209.60 132.93,-210.15 132.37,-210.93 132.04,-211.92 131.92,-213.14 119.12,-213.11 118.68,-210.85 118.11,-210.05 117.32,-209.48 116.30,-209.14 115.05,-209.02 115.14,-196.22 117.37,-195.79 118.14,-195.24 118.70,-194.46 119.03,-193.47 119.14,-192.24 131.94,-192.23 132.40,-194.52 132.97,-195.32 133.76,-195.90 134.79,-196.25">
        <request index="0"  response="0000000000000000000" foes="0000000000101000000" cont="0"/>
        <request index="1"  response="1010000000000000000" foes="1111110001101000000" cont="0"/>
        <request index="2"  response="1000001111000001000" foes="1101001111101001000" cont="1"/>
        <request index="3"  response="1010000001000000000" foes="1111110001101000100" cont="0"/>
        <request index="4"  response="1000001111000000000" foes="1101001111101000000" cont="1"/>
        <request index="5"  response="0000001100000000000" foes="1000001100000000000" cont="0"/>
        <request index="6"  response="0000011100000011111" foes="1000011100010011111" cont="0"/>
        <request index="7"  response="0000001100001000000" foes="1000001100001000000" cont="1"/>
        <request index="8"  response="0000011100000011111" foes="1000011100000011111" cont="0"/>
        <request index="9"  response="0111111100000011110" foes="0111111100000011110" cont="1"/>
        <request index="10" response="0000000000000000000" foes="0101000000000010100" cont="0"/>
        <request index="11" response="0000000001010000000" foes="1101000001111110100" cont="0"/>
        <request index="12" response="1000000001010000000" foes="1101000001111110100" cont="0"/>
        <request index="13" response="1000000001000001010" foes="1101000001101001010" cont="1"/>
        <request index="14" response="0000000000000001010" foes="0000000001000001010" cont="0"/>
        <request index="15" response="0000011110000011110" foes="0010011111000011110" cont="0"/>
        <request index="16" response="0001000000000001010" foes="0001000001000001010" cont="1"/>
        <request index="17" response="0000011110000011110" foes="0000011111000011110" cont="0"/>
        <request index="18" response="0000011100111111110" foes="0000011100111111110" cont="1"/>
    </junction>
    <junction id="J2" type="traffic_light" x="-368.00" y="-199.18" incLanes="-E1_0 -E1_1 -E7_0 -E7_1 E6_0 E6_1" intLanes=":J2_0_0 :J2_1_0 :J2_1_1 :J2_3_0 :J2_4_0 :J2_11_0 :J2_6_0 :J2_7_0 :J2_12_0 :J2_9_0 :J2_13_0" shape="-357.66,-192.85 -357.75,-205.65 -359.95,-206.08 -360.73,-206.62 -361.30,-207.39 -361.64,-208.38 -361.77,-209.59 -374.57,-209.37 -374.70,-189.25 -361.91,-188.86 -361.38,-191.07 -360.79,-191.84 -359.97,-192.40 -358.92,-192.73">
        <request index="0"  response="00001010000" foes="00001010000" cont="0"/>
        <request index="1"  response="11111010000" foes="11111010000" cont="0"/>
        <request index="2"  response="11111010000" foes="11111010000" cont="0"/>
        <request index="3"  response="00000000000" foes="10100000000" cont="0"/>
        <request index="4"  response="00000000000" foes="10100100111" cont="0"/>
        <request index="5"  response="00000010000" foes="10100010000" cont="1"/>
        <request index="6"  response="00000000000" foes="10100000111" cont="0"/>
        <request index="7"  response="00000000000" foes="00000000110" cont="0"/>
        <request index="8"  response="01001111000" foes="01001111110" cont="1"/>